data_image0
_cell_length_a       9.33403
_cell_length_b       9.33413
_cell_length_c       9.33383
_cell_angle_alpha    94.5421
_cell_angle_beta     94.5397
_cell_angle_gamma    94.5446

_symmetry_space_group_name_H-M    "P 1"
_symmetry_int_tables_number       1

loop_
  _symmetry_equiv_pos_as_xyz
  'x, y, z'

loop_
  _atom_site_label
  _atom_site_occupancy
  _atom_site_fract_x
  _atom_site_fract_y
  _atom_site_fract_z
  _atom_site_thermal_displace_type
  _atom_site_B_iso_or_equiv
  _atom_site_type_symbol
  O1       1.0000 0.72121  0.39860  0.96750  Biso   1.000  O
  O2       1.0000 0.48621  0.15464  0.38808  Biso   1.000  O
  O3       1.0000 0.37404  0.42336  0.33534  Biso   1.000  O
  O4       1.0000 0.81103  0.18396  0.10257  Biso   1.000  O
  O5       1.0000 0.73132  0.04748  0.32511  Biso   1.000  O
  O6       1.0000 0.51200  0.49242  0.11395  Biso   1.000  O
  O7       1.0000 0.22621  0.90977  0.17806  Biso   1.000  O
  O8       1.0000 0.44948  0.14376  0.75218  Biso   1.000  O
  O9       1.0000 0.21226  0.26309  0.81177  Biso   1.000  O
  O10      1.0000 0.43103  0.81610  0.02134  Biso   1.000  O
  O11      1.0000 0.58006  0.87916  0.80077  Biso   1.000  O
  O12      1.0000 0.13352  0.11831  0.03284  Biso   1.000  O
  O13      1.0000 0.70991  0.90768  0.06635  Biso   1.000  O
  O14      1.0000 0.46269  0.42820  0.83051  Biso   1.000  O
  O15      1.0000 0.17963  0.15935  0.32211  Biso   1.000  O
  O16      1.0000 0.23477  0.39275  0.07535  Biso   1.000  O
  O17      1.0000 0.48824  0.87395  0.30337  Biso   1.000  O
  O18      1.0000 0.75551  0.15077  0.81404  Biso   1.000  O
  O19      1.0000 0.61158  0.97156  0.55622  Biso   1.000  O
  O20      1.0000 0.97963  0.32480  0.93577  Biso   1.000  O
  O21      1.0000 0.30647  0.65208  0.20445  Biso   1.000  O
  O22      1.0000 0.34533  0.33642  0.58141  Biso   1.000  O
  O23      1.0000 0.96392  0.97608  0.20285  Biso   1.000  O
  O24      1.0000 0.63724  0.65288  0.93062  Biso   1.000  O
  Si1      1.0000 0.58294  0.48923  0.96041  Biso   1.000  Si
  Si2      1.0000 0.80372  0.03125  0.17372  Biso   1.000  Si
  Si3      1.0000 0.12831  0.04534  0.18649  Biso   1.000  Si
  Si4      1.0000 0.36730  0.28665  0.74588  Biso   1.000  Si
  Si5      1.0000 0.58836  0.81494  0.95804  Biso   1.000  Si
  Si6      1.0000 0.36249  0.81559  0.17748  Biso   1.000  Si
  Al1      1.0000 0.60146  0.05366  0.73289  Biso   1.000  Al
  Si7      1.0000 0.13990  0.27347  0.96399  Biso   1.000  Si
  Si8      1.0000 0.81510  0.26027  0.95010  Biso   1.000  Si
  Si9      1.0000 0.57657  0.01672  0.39210  Biso   1.000  Si
  Si10     1.0000 0.35555  0.49003  0.18087  Biso   1.000  Si
  Al2      1.0000 0.33637  0.25140  0.40180  Biso   1.000  Al
  Co1      1.0000 0.48363  0.50459  0.53080  Biso   1.000  Co
  O25      1.0000 0.66235  0.60153  0.51740  Biso   1.000  O
  Co2      1.0000 0.60569  0.75914  0.61967  Biso   1.000  Co
  C1       1.0000 0.85572  0.58038  0.33315  Biso   1.000  C
  H1       1.0000 0.74550  0.59233  0.43359  Biso   1.000  H
  H2       1.0000 0.79627  0.59550  0.23099  Biso   1.000  H
  H3       1.0000 0.88420  0.47120  0.34843  Biso   1.000  H
  O26      1.0000 0.97007  0.68085  0.37599  Biso   1.000  O
  H4       1.0000 0.95924  0.76904  0.32870  Biso   1.000  H
