data_image0
_cell_length_a       9.33403
_cell_length_b       9.33413
_cell_length_c       9.33383
_cell_angle_alpha    94.5421
_cell_angle_beta     94.5397
_cell_angle_gamma    94.5446

_symmetry_space_group_name_H-M    "P 1"
_symmetry_int_tables_number       1

loop_
  _symmetry_equiv_pos_as_xyz
  'x, y, z'

loop_
  _atom_site_label
  _atom_site_occupancy
  _atom_site_fract_x
  _atom_site_fract_y
  _atom_site_fract_z
  _atom_site_thermal_displace_type
  _atom_site_B_iso_or_equiv
  _atom_site_type_symbol
  O1       1.0000 0.26103  0.25678  0.90774  Biso   1.000  O
  O2       1.0000 0.01978  0.00828  0.30158  Biso   1.000  O
  O3       1.0000 0.88601  0.26704  0.25613  Biso   1.000  O
  O4       1.0000 0.32820  0.01649  0.01957  Biso   1.000  O
  O5       1.0000 0.26526  0.89032  0.25186  Biso   1.000  O
  O6       1.0000 0.03780  0.34198  0.04157  Biso   1.000  O
  O7       1.0000 0.76580  0.76335  0.11712  Biso   1.000  O
  O8       1.0000 0.97430  0.97054  0.66926  Biso   1.000  O
  O9       1.0000 0.74598  0.09724  0.74298  Biso   1.000  O
  O10      1.0000 0.97282  0.67660  0.96532  Biso   1.000  O
  O11      1.0000 0.11675  0.75247  0.74482  Biso   1.000  O
  O12      1.0000 0.67838  0.97707  0.97797  Biso   1.000  O
  O13      1.0000 0.25538  0.73219  0.00010  Biso   1.000  O
  O14      1.0000 0.00311  0.24862  0.76561  Biso   1.000  O
  O15      1.0000 0.70909  0.00252  0.26814  Biso   1.000  O
  O16      1.0000 0.75476  0.25982  0.98971  Biso   1.000  O
  O17      1.0000 0.02290  0.72308  0.25502  Biso   1.000  O
  O18      1.0000 0.25883  0.01172  0.73709  Biso   1.000  O
  O19      1.0000 0.15587  0.85616  0.49573  Biso   1.000  O
  O20      1.0000 0.50437  0.15232  0.85332  Biso   1.000  O
  O21      1.0000 0.84266  0.50604  0.14106  Biso   1.000  O
  O22      1.0000 0.87494  0.17466  0.51237  Biso   1.000  O
  O23      1.0000 0.50026  0.82704  0.13035  Biso   1.000  O
  O24      1.0000 0.14791  0.49799  0.84241  Biso   1.000  O
  Si1      1.0000 0.11332  0.33609  0.89045  Biso   1.000  Si
  Si2      1.0000 0.33711  0.86869  0.10047  Biso   1.000  Si
  Si3      1.0000 0.66470  0.89609  0.12635  Biso   1.000  Si
  Si4      1.0000 0.89838  0.12170  0.67349  Biso   1.000  Si
  Si5      1.0000 0.12216  0.66523  0.88751  Biso   1.000  Si
  Si6      1.0000 0.90182  0.66982  0.11916  Biso   1.000  Si
  Si7      1.0000 0.12724  0.89846  0.66193  Biso   1.000  Si
  Si8      1.0000 0.67074  0.12123  0.89303  Biso   1.000  Si
  Si9      1.0000 0.33782  0.10802  0.87901  Biso   1.000  Si
  Si10     1.0000 0.11365  0.87621  0.32589  Biso   1.000  Si
  Si11     1.0000 0.87961  0.34074  0.10605  Biso   1.000  Si
  Al1      1.0000 0.86897  0.09972  0.33043  Biso   1.000  Al
  Co1      1.0000 0.96418  0.36969  0.46341  Biso   1.000  Co
  O25      1.0000 0.10496  0.52894  0.47181  Biso   1.000  O
  H1       1.0000 0.22155  0.53311  0.49315  Biso   1.000  H
  C1       1.0000 0.39220  0.55048  0.52454  Biso   1.000  C
  H2       1.0000 0.41890  0.66344  0.50691  Biso   1.000  H
  H3       1.0000 0.39842  0.52304  0.63606  Biso   1.000  H
  H4       1.0000 0.08816  0.59462  0.39721  Biso   1.000  H
  O26      1.0000 0.45565  0.44993  0.43846  Biso   1.000  O
  H5       1.0000 0.47228  0.48721  0.34665  Biso   1.000  H
