data_image0
_cell_length_a       9.33403
_cell_length_b       9.33413
_cell_length_c       9.33383
_cell_angle_alpha    94.5421
_cell_angle_beta     94.5397
_cell_angle_gamma    94.5446

_symmetry_space_group_name_H-M    "P 1"
_symmetry_int_tables_number       1

loop_
  _symmetry_equiv_pos_as_xyz
  'x, y, z'

loop_
  _atom_site_label
  _atom_site_occupancy
  _atom_site_fract_x
  _atom_site_fract_y
  _atom_site_fract_z
  _atom_site_thermal_displace_type
  _atom_site_B_iso_or_equiv
  _atom_site_type_symbol
  O1       1.0000 0.26060  0.25625  0.90635  Biso   1.000  O
  O2       1.0000 0.02021  0.00805  0.30199  Biso   1.000  O
  O3       1.0000 0.88768  0.26855  0.25714  Biso   1.000  O
  O4       1.0000 0.32808  0.01711  0.02016  Biso   1.000  O
  O5       1.0000 0.26579  0.89099  0.25208  Biso   1.000  O
  O6       1.0000 0.03784  0.34066  0.04110  Biso   1.000  O
  O7       1.0000 0.76757  0.76458  0.11928  Biso   1.000  O
  O8       1.0000 0.97477  0.97143  0.66944  Biso   1.000  O
  O9       1.0000 0.74574  0.09822  0.74259  Biso   1.000  O
  O10      1.0000 0.97285  0.67704  0.96525  Biso   1.000  O
  O11      1.0000 0.11537  0.75178  0.74406  Biso   1.000  O
  O12      1.0000 0.67937  0.97493  0.97582  Biso   1.000  O
  O13      1.0000 0.25539  0.73327  0.99950  Biso   1.000  O
  O14      1.0000 0.00257  0.25012  0.76448  Biso   1.000  O
  O15      1.0000 0.70923  0.00554  0.26578  Biso   1.000  O
  O16      1.0000 0.75487  0.25815  0.99106  Biso   1.000  O
  O17      1.0000 0.02430  0.72230  0.25486  Biso   1.000  O
  O18      1.0000 0.25923  0.01077  0.73732  Biso   1.000  O
  O19      1.0000 0.15555  0.85588  0.49579  Biso   1.000  O
  O20      1.0000 0.50452  0.15174  0.85365  Biso   1.000  O
  O21      1.0000 0.84348  0.50601  0.14021  Biso   1.000  O
  O22      1.0000 0.87379  0.17453  0.51215  Biso   1.000  O
  O23      1.0000 0.50091  0.82792  0.12975  Biso   1.000  O
  O24      1.0000 0.14790  0.49816  0.84271  Biso   1.000  O
  Si1      1.0000 0.11337  0.33611  0.89016  Biso   1.000  Si
  Si2      1.0000 0.33760  0.86893  0.10063  Biso   1.000  Si
  Si3      1.0000 0.66529  0.89635  0.12578  Biso   1.000  Si
  Si4      1.0000 0.89831  0.12204  0.67360  Biso   1.000  Si
  Si5      1.0000 0.12221  0.66550  0.88752  Biso   1.000  Si
  Si6      1.0000 0.90243  0.66983  0.11924  Biso   1.000  Si
  Si7      1.0000 0.12721  0.89819  0.66196  Biso   1.000  Si
  Si8      1.0000 0.67086  0.12041  0.89309  Biso   1.000  Si
  Si9      1.0000 0.33787  0.10769  0.87915  Biso   1.000  Si
  Si10     1.0000 0.11424  0.87590  0.32590  Biso   1.000  Si
  Si11     1.0000 0.87993  0.34058  0.10609  Biso   1.000  Si
  Al1      1.0000 0.86980  0.10023  0.32972  Biso   1.000  Al
  Co1      1.0000 0.95679  0.37116  0.46661  Biso   1.000  Co
  O25      1.0000 0.10138  0.52871  0.46824  Biso   1.000  O
  H1       1.0000 0.21122  0.53219  0.49467  Biso   1.000  H
  C1       1.0000 0.39955  0.55171  0.52757  Biso   1.000  C
  H2       1.0000 0.42491  0.66380  0.50900  Biso   1.000  H
  H3       1.0000 0.40051  0.52487  0.63873  Biso   1.000  H
  H4       1.0000 0.42894  0.47034  0.44820  Biso   1.000  H
  H5       1.0000 0.08813  0.59271  0.39134  Biso   1.000  H
