data_image0
_cell_length_a       9.33403
_cell_length_b       9.33413
_cell_length_c       9.33383
_cell_angle_alpha    94.5421
_cell_angle_beta     94.5397
_cell_angle_gamma    94.5446

_symmetry_space_group_name_H-M    "P 1"
_symmetry_int_tables_number       1

loop_
  _symmetry_equiv_pos_as_xyz
  'x, y, z'

loop_
  _atom_site_label
  _atom_site_occupancy
  _atom_site_fract_x
  _atom_site_fract_y
  _atom_site_fract_z
  _atom_site_thermal_displace_type
  _atom_site_B_iso_or_equiv
  _atom_site_type_symbol
  O1       1.0000 0.72637  0.40146  0.95834  Biso   1.000  O
  O2       1.0000 0.49120  0.15669  0.38359  Biso   1.000  O
  O3       1.0000 0.37865  0.42455  0.32785  Biso   1.000  O
  O4       1.0000 0.81323  0.18949  0.09741  Biso   1.000  O
  O5       1.0000 0.73567  0.04926  0.31812  Biso   1.000  O
  O6       1.0000 0.51671  0.49415  0.10746  Biso   1.000  O
  O7       1.0000 0.23032  0.91195  0.17122  Biso   1.000  O
  O8       1.0000 0.45347  0.14598  0.74304  Biso   1.000  O
  O9       1.0000 0.21708  0.26644  0.80407  Biso   1.000  O
  O10      1.0000 0.43350  0.81617  0.01400  Biso   1.000  O
  O11      1.0000 0.57974  0.87874  0.79153  Biso   1.000  O
  O12      1.0000 0.14212  0.12208  0.02635  Biso   1.000  O
  O13      1.0000 0.71022  0.91495  0.05641  Biso   1.000  O
  O14      1.0000 0.46768  0.43061  0.82429  Biso   1.000  O
  O15      1.0000 0.18413  0.16068  0.31569  Biso   1.000  O
  O16      1.0000 0.23829  0.39748  0.06736  Biso   1.000  O
  O17      1.0000 0.49262  0.87610  0.29594  Biso   1.000  O
  O18      1.0000 0.75865  0.15031  0.80894  Biso   1.000  O
  O19      1.0000 0.61540  0.97121  0.54906  Biso   1.000  O
  O20      1.0000 0.98376  0.32502  0.92744  Biso   1.000  O
  O21      1.0000 0.31113  0.65438  0.20020  Biso   1.000  O
  O22      1.0000 0.34973  0.33994  0.57413  Biso   1.000  O
  O23      1.0000 0.96723  0.98093  0.19048  Biso   1.000  O
  O24      1.0000 0.64204  0.65598  0.92556  Biso   1.000  O
  Si1      1.0000 0.58825  0.49204  0.95401  Biso   1.000  Si
  Si2      1.0000 0.80718  0.03482  0.16580  Biso   1.000  Si
  Si3      1.0000 0.13224  0.04755  0.17913  Biso   1.000  Si
  Si4      1.0000 0.37237  0.28979  0.73866  Biso   1.000  Si
  Si5      1.0000 0.59088  0.81713  0.95035  Biso   1.000  Si
  Si6      1.0000 0.36608  0.81771  0.17059  Biso   1.000  Si
  Al1      1.0000 0.60488  0.05440  0.72619  Biso   1.000  Al
  Si7      1.0000 0.14493  0.27626  0.95644  Biso   1.000  Si
  Si8      1.0000 0.81898  0.26213  0.94326  Biso   1.000  Si
  Si9      1.0000 0.58129  0.01845  0.38507  Biso   1.000  Si
  Si10     1.0000 0.36000  0.49244  0.17349  Biso   1.000  Si
  Al2      1.0000 0.34058  0.25249  0.39529  Biso   1.000  Al
  Co1      1.0000 0.48728  0.50713  0.52030  Biso   1.000  Co
  O25      1.0000 0.67550  0.59249  0.53958  Biso   1.000  O
  Co2      1.0000 0.60439  0.76093  0.60835  Biso   1.000  Co
  C1       1.0000 0.84457  0.58056  0.33670  Biso   1.000  C
  H1       1.0000 0.75208  0.58696  0.44561  Biso   1.000  H
  H2       1.0000 0.81361  0.66359  0.26786  Biso   1.000  H
  H3       1.0000 0.82005  0.46991  0.29031  Biso   1.000  H
  H4       1.0000 0.94845  0.60375  0.39904  Biso   1.000  H
