data_image0
_cell_length_a       9.33403
_cell_length_b       9.33413
_cell_length_c       9.33383
_cell_angle_alpha    94.5421
_cell_angle_beta     94.5397
_cell_angle_gamma    94.5446

_symmetry_space_group_name_H-M    "P 1"
_symmetry_int_tables_number       1

loop_
  _symmetry_equiv_pos_as_xyz
  'x, y, z'

loop_
  _atom_site_label
  _atom_site_occupancy
  _atom_site_fract_x
  _atom_site_fract_y
  _atom_site_fract_z
  _atom_site_thermal_displace_type
  _atom_site_B_iso_or_equiv
  _atom_site_type_symbol
  O1       1.0000 0.25719  0.25324  0.90101  Biso   1.000  O
  O2       1.0000 0.02292  0.00692  0.31060  Biso   1.000  O
  O3       1.0000 0.89492  0.26918  0.25704  Biso   1.000  O
  O4       1.0000 0.33009  0.02115  0.02151  Biso   1.000  O
  O5       1.0000 0.26245  0.89190  0.25089  Biso   1.000  O
  O6       1.0000 0.03386  0.33544  0.03408  Biso   1.000  O
  O7       1.0000 0.76194  0.75909  0.11520  Biso   1.000  O
  O8       1.0000 0.97581  0.97530  0.66218  Biso   1.000  O
  O9       1.0000 0.75044  0.10325  0.74423  Biso   1.000  O
  O10      1.0000 0.97041  0.67419  0.96458  Biso   1.000  O
  O11      1.0000 0.10982  0.75431  0.74696  Biso   1.000  O
  O12      1.0000 0.67718  0.97143  0.96968  Biso   1.000  O
  O13      1.0000 0.25027  0.74121  0.99886  Biso   1.000  O
  O14      1.0000 0.00347  0.25335  0.75815  Biso   1.000  O
  O15      1.0000 0.71590  0.00559  0.25549  Biso   1.000  O
  O16      1.0000 0.75296  0.25145  0.99698  Biso   1.000  O
  O17      1.0000 0.02021  0.72624  0.24895  Biso   1.000  O
  O18      1.0000 0.25628  0.00727  0.73983  Biso   1.000  O
  O19      1.0000 0.15593  0.85256  0.49665  Biso   1.000  O
  O20      1.0000 0.50362  0.15032  0.85078  Biso   1.000  O
  O21      1.0000 0.84475  0.50329  0.13681  Biso   1.000  O
  O22      1.0000 0.87418  0.17868  0.50798  Biso   1.000  O
  O23      1.0000 0.49911  0.83459  0.12824  Biso   1.000  O
  O24      1.0000 0.14905  0.50046  0.84900  Biso   1.000  O
  Si1      1.0000 0.11292  0.33686  0.88606  Biso   1.000  Si
  Si2      1.0000 0.33517  0.87256  0.10071  Biso   1.000  Si
  Si3      1.0000 0.66456  0.89415  0.11956  Biso   1.000  Si
  Si4      1.0000 0.90009  0.12469  0.67019  Biso   1.000  Si
  Si5      1.0000 0.12001  0.66705  0.88833  Biso   1.000  Si
  Si6      1.0000 0.90080  0.66899  0.11763  Biso   1.000  Si
  Si7      1.0000 0.12551  0.89628  0.66065  Biso   1.000  Si
  Si8      1.0000 0.67018  0.11872  0.89177  Biso   1.000  Si
  Si9      1.0000 0.33675  0.10609  0.87807  Biso   1.000  Si
  Si10     1.0000 0.11325  0.87062  0.32729  Biso   1.000  Si
  Si11     1.0000 0.88061  0.33935  0.10296  Biso   1.000  Si
  Al1      1.0000 0.87274  0.09727  0.32726  Biso   1.000  Al
  Co1      1.0000 0.96118  0.37232  0.45199  Biso   1.000  Co
  O25      1.0000 0.09686  0.50534  0.50276  Biso   1.000  O
  H1       1.0000 0.23897  0.50523  0.50314  Biso   1.000  H
  C1       1.0000 0.37243  0.51263  0.50370  Biso   1.000  C
  H2       1.0000 0.40158  0.62416  0.48249  Biso   1.000  H
  H3       1.0000 0.39519  0.43563  0.41531  Biso   1.000  H
  O26      1.0000 0.43761  0.48989  0.63646  Biso   1.000  O
  H4       1.0000 0.42971  0.38883  0.65334  Biso   1.000  H
