data_image0
_cell_length_a       9.46362
_cell_length_b       9.46352
_cell_length_c       9.4638
_cell_angle_alpha    94.5227
_cell_angle_beta     94.5193
_cell_angle_gamma    94.5229

_symmetry_space_group_name_H-M    "P 1"
_symmetry_int_tables_number       1

loop_
  _symmetry_equiv_pos_as_xyz
  'x, y, z'

loop_
  _atom_site_label
  _atom_site_occupancy
  _atom_site_fract_x
  _atom_site_fract_y
  _atom_site_fract_z
  _atom_site_thermal_displace_type
  _atom_site_B_iso_or_equiv
  _atom_site_type_symbol
  P1       1.0000 0.11310  0.32915  0.87708  Biso   1.000  P
  Si1      1.0000 0.87494  0.10765  0.32608  Biso   1.000  Si
  P2       1.0000 0.33257  0.86744  0.10046  Biso   1.000  P
  Al1      1.0000 0.66360  0.89843  0.12000  Biso   1.000  Al
  Al2      1.0000 0.89940  0.11655  0.66401  Biso   1.000  Al
  Al3      1.0000 0.12076  0.66100  0.88776  Biso   1.000  Al
  P3       1.0000 0.89005  0.66570  0.11073  Biso   1.000  P
  P4       1.0000 0.12252  0.88538  0.65385  Biso   1.000  P
  P5       1.0000 0.66516  0.11512  0.88129  Biso   1.000  P
  Al4      1.0000 0.33277  0.09558  0.86785  Biso   1.000  Al
  Al5      1.0000 0.10187  0.87356  0.32175  Biso   1.000  Al
  Al6      1.0000 0.87552  0.33429  0.09108  Biso   1.000  Al
  O1       1.0000 0.24948  0.25349  0.89358  Biso   1.000  O
  O2       1.0000 0.01577  0.02726  0.30994  Biso   1.000  O
  O3       1.0000 0.88768  0.26683  0.25984  Biso   1.000  O
  O4       1.0000 0.32326  0.00224  0.01996  Biso   1.000  O
  O5       1.0000 0.26004  0.88853  0.23797  Biso   1.000  O
  O6       1.0000 0.03874  0.32508  0.01599  Biso   1.000  O
  O7       1.0000 0.75860  0.74813  0.10160  Biso   1.000  O
  O8       1.0000 0.98201  0.95721  0.66118  Biso   1.000  O
  O9       1.0000 0.74024  0.09700  0.74436  Biso   1.000  O
  O10      1.0000 0.96129  0.67229  0.97021  Biso   1.000  O
  O11      1.0000 0.11309  0.75217  0.73493  Biso   1.000  O
  O12      1.0000 0.67213  0.97899  0.95791  Biso   1.000  O
  O13      1.0000 0.26156  0.73735  0.00695  Biso   1.000  O
  O14      1.0000 0.01305  0.25600  0.75286  Biso   1.000  O
  O15      1.0000 0.73200  0.01670  0.26137  Biso   1.000  O
  O16      1.0000 0.73735  0.24389  0.97718  Biso   1.000  O
  O17      1.0000 0.99480  0.72344  0.23803  Biso   1.000  O
  O18      1.0000 0.24767  0.99026  0.71938  Biso   1.000  O
  O19      1.0000 0.14640  0.84126  0.49955  Biso   1.000  O
  O20      1.0000 0.51059  0.14319  0.84081  Biso   1.000  O
  O21      1.0000 0.84090  0.51058  0.13089  Biso   1.000  O
  O22      1.0000 0.86426  0.17287  0.49295  Biso   1.000  O
  O23      1.0000 0.48713  0.84051  0.13816  Biso   1.000  O
  O24      1.0000 0.15084  0.48291  0.84536  Biso   1.000  O
  Co1      1.0000 0.86857  0.38367  0.44483  Biso   1.000  Co
  O25      1.0000 0.82452  0.52871  0.54993  Biso   1.000  O
  C1       1.0000 0.62465  0.55850  0.71380  Biso   1.000  C
  H1       1.0000 0.67674  0.63398  0.79792  Biso   1.000  H
  H2       1.0000 0.60020  0.45120  0.74361  Biso   1.000  H
  H3       1.0000 0.73486  0.54195  0.62228  Biso   1.000  H
  H4       1.0000 0.54246  0.59937  0.64541  Biso   1.000  H
