data_image0
_cell_length_a       9.33403
_cell_length_b       9.33413
_cell_length_c       9.33383
_cell_angle_alpha    94.5421
_cell_angle_beta     94.5397
_cell_angle_gamma    94.5446

_symmetry_space_group_name_H-M    "P 1"
_symmetry_int_tables_number       1

loop_
  _symmetry_equiv_pos_as_xyz
  'x, y, z'

loop_
  _atom_site_label
  _atom_site_occupancy
  _atom_site_fract_x
  _atom_site_fract_y
  _atom_site_fract_z
  _atom_site_thermal_displace_type
  _atom_site_B_iso_or_equiv
  _atom_site_type_symbol
  O1       1.0000 0.72382  0.40184  0.97720  Biso   1.000  O
  O2       1.0000 0.49095  0.16262  0.36959  Biso   1.000  O
  O3       1.0000 0.36972  0.42704  0.33051  Biso   1.000  O
  O4       1.0000 0.81812  0.17955  0.09300  Biso   1.000  O
  O5       1.0000 0.73782  0.04929  0.31715  Biso   1.000  O
  O6       1.0000 0.51174  0.49982  0.11130  Biso   1.000  O
  O7       1.0000 0.23550  0.91789  0.16593  Biso   1.000  O
  O8       1.0000 0.44153  0.13605  0.75341  Biso   1.000  O
  O9       1.0000 0.21079  0.27021  0.80547  Biso   1.000  O
  O10      1.0000 0.43909  0.81810  0.01346  Biso   1.000  O
  O11      1.0000 0.59384  0.88291  0.79359  Biso   1.000  O
  O12      1.0000 0.13377  0.12611  0.02795  Biso   1.000  O
  O13      1.0000 0.71782  0.90161  0.06136  Biso   1.000  O
  O14      1.0000 0.46755  0.42118  0.82938  Biso   1.000  O
  O15      1.0000 0.18061  0.16014  0.31753  Biso   1.000  O
  O16      1.0000 0.23387  0.40134  0.06983  Biso   1.000  O
  O17      1.0000 0.49369  0.87982  0.29735  Biso   1.000  O
  O18      1.0000 0.75093  0.16360  0.80622  Biso   1.000  O
  O19      1.0000 0.61503  0.98922  0.54948  Biso   1.000  O
  O20      1.0000 0.97942  0.33104  0.92895  Biso   1.000  O
  O21      1.0000 0.30903  0.66002  0.20070  Biso   1.000  O
  O22      1.0000 0.35310  0.32979  0.57645  Biso   1.000  O
  O23      1.0000 0.97035  0.97333  0.19635  Biso   1.000  O
  O24      1.0000 0.63892  0.65064  0.92018  Biso   1.000  O
  Si1      1.0000 0.58450  0.49020  0.95846  Biso   1.000  Si
  Si2      1.0000 0.81006  0.02810  0.16573  Biso   1.000  Si
  Si3      1.0000 0.13230  0.04849  0.17921  Biso   1.000  Si
  Si4      1.0000 0.36818  0.28396  0.74275  Biso   1.000  Si
  Si5      1.0000 0.59593  0.81458  0.94777  Biso   1.000  Si
  Si6      1.0000 0.36970  0.82116  0.16918  Biso   1.000  Si
  Al1      1.0000 0.59981  0.05797  0.73041  Biso   1.000  Al
  Si7      1.0000 0.13993  0.28096  0.95851  Biso   1.000  Si
  Si8      1.0000 0.81622  0.26466  0.94601  Biso   1.000  Si
  Si9      1.0000 0.58129  0.02539  0.38192  Biso   1.000  Si
  Si10     1.0000 0.35486  0.49670  0.17713  Biso   1.000  Si
  Al2      1.0000 0.33770  0.25299  0.39407  Biso   1.000  Al
  Cu1      1.0000 0.49861  0.48501  0.51925  Biso   1.000  Cu
  O25      1.0000 0.66391  0.60416  0.52838  Biso   1.000  O
  Cu2      1.0000 0.64543  0.78799  0.59634  Biso   1.000  Cu
  C1       1.0000 0.85849  0.57131  0.34784  Biso   1.000  C
  H1       1.0000 0.76410  0.58718  0.44329  Biso   1.000  H
  H2       1.0000 0.79327  0.57640  0.24623  Biso   1.000  H
  H3       1.0000 0.89298  0.46488  0.36731  Biso   1.000  H
  O26      1.0000 0.97301  0.67508  0.37554  Biso   1.000  O
  H4       1.0000 0.95855  0.75857  0.32144  Biso   1.000  H
