data_image0
_cell_length_a       9.33403
_cell_length_b       9.33413
_cell_length_c       9.33383
_cell_angle_alpha    94.5421
_cell_angle_beta     94.5397
_cell_angle_gamma    94.5446

_symmetry_space_group_name_H-M    "P 1"
_symmetry_int_tables_number       1

loop_
  _symmetry_equiv_pos_as_xyz
  'x, y, z'

loop_
  _atom_site_label
  _atom_site_occupancy
  _atom_site_fract_x
  _atom_site_fract_y
  _atom_site_fract_z
  _atom_site_thermal_displace_type
  _atom_site_B_iso_or_equiv
  _atom_site_type_symbol
  O1       1.0000 0.72281  0.40150  0.96431  Biso   1.000  O
  O2       1.0000 0.49233  0.16411  0.36930  Biso   1.000  O
  O3       1.0000 0.37110  0.42610  0.32688  Biso   1.000  O
  O4       1.0000 0.81617  0.18568  0.09227  Biso   1.000  O
  O5       1.0000 0.73953  0.05225  0.31498  Biso   1.000  O
  O6       1.0000 0.51397  0.49789  0.10691  Biso   1.000  O
  O7       1.0000 0.23532  0.91707  0.16266  Biso   1.000  O
  O8       1.0000 0.44796  0.14308  0.75261  Biso   1.000  O
  O9       1.0000 0.21236  0.27154  0.80241  Biso   1.000  O
  O10      1.0000 0.43781  0.81677  0.01001  Biso   1.000  O
  O11      1.0000 0.59046  0.88316  0.78928  Biso   1.000  O
  O12      1.0000 0.13877  0.12757  0.02444  Biso   1.000  O
  O13      1.0000 0.71381  0.90951  0.05692  Biso   1.000  O
  O14      1.0000 0.46616  0.42913  0.82289  Biso   1.000  O
  O15      1.0000 0.18110  0.15891  0.31378  Biso   1.000  O
  O16      1.0000 0.23554  0.40374  0.06599  Biso   1.000  O
  O17      1.0000 0.49489  0.88203  0.29401  Biso   1.000  O
  O18      1.0000 0.75750  0.15899  0.80385  Biso   1.000  O
  O19      1.0000 0.61657  0.98993  0.54673  Biso   1.000  O
  O20      1.0000 0.98130  0.33225  0.92691  Biso   1.000  O
  O21      1.0000 0.31304  0.66032  0.20085  Biso   1.000  O
  O22      1.0000 0.34965  0.32977  0.57246  Biso   1.000  O
  O23      1.0000 0.96956  0.97704  0.18692  Biso   1.000  O
  O24      1.0000 0.64172  0.65427  0.91947  Biso   1.000  O
  Si1      1.0000 0.58562  0.49289  0.95330  Biso   1.000  Si
  Si2      1.0000 0.81010  0.03222  0.16233  Biso   1.000  Si
  Si3      1.0000 0.13251  0.04821  0.17460  Biso   1.000  Si
  Si4      1.0000 0.36938  0.28769  0.74001  Biso   1.000  Si
  Si5      1.0000 0.59512  0.81706  0.94508  Biso   1.000  Si
  Si6      1.0000 0.37036  0.82178  0.16668  Biso   1.000  Si
  Al1      1.0000 0.60280  0.05931  0.72795  Biso   1.000  Al
  Si7      1.0000 0.14186  0.28225  0.95564  Biso   1.000  Si
  Si8      1.0000 0.81787  0.26521  0.94213  Biso   1.000  Si
  Si9      1.0000 0.58318  0.02697  0.37912  Biso   1.000  Si
  Si10     1.0000 0.35768  0.49688  0.17364  Biso   1.000  Si
  Al2      1.0000 0.33728  0.25177  0.39039  Biso   1.000  Al
  Cu1      1.0000 0.49316  0.48413  0.51837  Biso   1.000  Cu
  O25      1.0000 0.65973  0.60274  0.53128  Biso   1.000  O
  Cu2      1.0000 0.64489  0.78948  0.59406  Biso   1.000  Cu
  C1       1.0000 0.85634  0.54847  0.36337  Biso   1.000  C
  H1       1.0000 0.75350  0.57518  0.45615  Biso   1.000  H
  H2       1.0000 0.84304  0.63117  0.28855  Biso   1.000  H
  H3       1.0000 0.82322  0.43849  0.31884  Biso   1.000  H
  H4       1.0000 0.95565  0.56238  0.43413  Biso   1.000  H
