data_image0
_cell_length_a       9.33403
_cell_length_b       9.33413
_cell_length_c       9.33383
_cell_angle_alpha    94.5421
_cell_angle_beta     94.5397
_cell_angle_gamma    94.5446

_symmetry_space_group_name_H-M    "P 1"
_symmetry_int_tables_number       1

loop_
  _symmetry_equiv_pos_as_xyz
  'x, y, z'

loop_
  _atom_site_label
  _atom_site_occupancy
  _atom_site_fract_x
  _atom_site_fract_y
  _atom_site_fract_z
  _atom_site_thermal_displace_type
  _atom_site_B_iso_or_equiv
  _atom_site_type_symbol
  O1       1.0000 0.25798  0.25305  0.89826  Biso   1.000  O
  O2       1.0000 0.02460  0.00491  0.31213  Biso   1.000  O
  O3       1.0000 0.90249  0.26298  0.25038  Biso   1.000  O
  O4       1.0000 0.32350  0.02545  0.02786  Biso   1.000  O
  O5       1.0000 0.26001  0.88038  0.25063  Biso   1.000  O
  O6       1.0000 0.03253  0.33839  0.02792  Biso   1.000  O
  O7       1.0000 0.75851  0.75402  0.11575  Biso   1.000  O
  O8       1.0000 0.97383  0.97464  0.66056  Biso   1.000  O
  O9       1.0000 0.75194  0.10500  0.74377  Biso   1.000  O
  O10      1.0000 0.97309  0.67373  0.97015  Biso   1.000  O
  O11      1.0000 0.10004  0.74949  0.74452  Biso   1.000  O
  O12      1.0000 0.68495  0.96902  0.96868  Biso   1.000  O
  O13      1.0000 0.25277  0.74448  0.99277  Biso   1.000  O
  O14      1.0000 0.00686  0.25395  0.75279  Biso   1.000  O
  O15      1.0000 0.71931  0.00287  0.25526  Biso   1.000  O
  O16      1.0000 0.75043  0.25125  0.99589  Biso   1.000  O
  O17      1.0000 0.01517  0.72139  0.25619  Biso   1.000  O
  O18      1.0000 0.25297  0.00058  0.74546  Biso   1.000  O
  O19      1.0000 0.15476  0.84571  0.49839  Biso   1.000  O
  O20      1.0000 0.50268  0.13855  0.85263  Biso   1.000  O
  O21      1.0000 0.84331  0.49988  0.13695  Biso   1.000  O
  O22      1.0000 0.87689  0.17846  0.50565  Biso   1.000  O
  O23      1.0000 0.49929  0.83913  0.12639  Biso   1.000  O
  O24      1.0000 0.15201  0.50143  0.84585  Biso   1.000  O
  Si1      1.0000 0.11368  0.33677  0.88226  Biso   1.000  Si
  Si2      1.0000 0.33428  0.87407  0.10059  Biso   1.000  Si
  Si3      1.0000 0.66693  0.89393  0.11875  Biso   1.000  Si
  Si4      1.0000 0.89990  0.12629  0.66638  Biso   1.000  Si
  Si5      1.0000 0.11917  0.66668  0.88888  Biso   1.000  Si
  Si6      1.0000 0.89817  0.66494  0.12035  Biso   1.000  Si
  Si7      1.0000 0.12141  0.89427  0.66214  Biso   1.000  Si
  Si8      1.0000 0.67179  0.11657  0.89120  Biso   1.000  Si
  Si9      1.0000 0.33497  0.10413  0.88019  Biso   1.000  Si
  Si10     1.0000 0.11144  0.86820  0.32890  Biso   1.000  Si
  Si11     1.0000 0.88114  0.33586  0.10184  Biso   1.000  Si
  Al1      1.0000 0.87476  0.09927  0.32640  Biso   1.000  Al
  Cu1      1.0000 0.00437  0.35316  0.45485  Biso   1.000  Cu
  O25      1.0000 0.15158  0.49217  0.43728  Biso   1.000  O
  H1       1.0000 0.27843  0.53109  0.50268  Biso   1.000  H
  C1       1.0000 0.40469  0.57912  0.55619  Biso   1.000  C
  H2       1.0000 0.41035  0.69172  0.53150  Biso   1.000  H
  H3       1.0000 0.40322  0.56359  0.67042  Biso   1.000  H
  H4       1.0000 0.12157  0.58242  0.40577  Biso   1.000  H
  O26      1.0000 0.50566  0.49855  0.49760  Biso   1.000  O
  H5       1.0000 0.52870  0.53099  0.40591  Biso   1.000  H
