data_image0
_cell_length_a       9.33403
_cell_length_b       9.33413
_cell_length_c       9.33383
_cell_angle_alpha    94.5421
_cell_angle_beta     94.5397
_cell_angle_gamma    94.5446

_symmetry_space_group_name_H-M    "P 1"
_symmetry_int_tables_number       1

loop_
  _symmetry_equiv_pos_as_xyz
  'x, y, z'

loop_
  _atom_site_label
  _atom_site_occupancy
  _atom_site_fract_x
  _atom_site_fract_y
  _atom_site_fract_z
  _atom_site_thermal_displace_type
  _atom_site_B_iso_or_equiv
  _atom_site_type_symbol
  O1       1.0000 0.25630  0.25410  0.90261  Biso   1.000  O
  O2       1.0000 0.02727  0.00887  0.31450  Biso   1.000  O
  O3       1.0000 0.90457  0.26738  0.25656  Biso   1.000  O
  O4       1.0000 0.32687  0.02729  0.03012  Biso   1.000  O
  O5       1.0000 0.26008  0.88299  0.25261  Biso   1.000  O
  O6       1.0000 0.03151  0.34039  0.03018  Biso   1.000  O
  O7       1.0000 0.75675  0.75467  0.11039  Biso   1.000  O
  O8       1.0000 0.97368  0.97963  0.66249  Biso   1.000  O
  O9       1.0000 0.75154  0.11395  0.74555  Biso   1.000  O
  O10      1.0000 0.97147  0.66756  0.97055  Biso   1.000  O
  O11      1.0000 0.09755  0.75404  0.74850  Biso   1.000  O
  O12      1.0000 0.68221  0.97118  0.96750  Biso   1.000  O
  O13      1.0000 0.25084  0.74674  0.99523  Biso   1.000  O
  O14      1.0000 0.00715  0.25853  0.75353  Biso   1.000  O
  O15      1.0000 0.72028  0.00408  0.25329  Biso   1.000  O
  O16      1.0000 0.75100  0.25198  0.00174  Biso   1.000  O
  O17      1.0000 0.01158  0.72826  0.25511  Biso   1.000  O
  O18      1.0000 0.25311  0.00331  0.74814  Biso   1.000  O
  O19      1.0000 0.15547  0.85228  0.50102  Biso   1.000  O
  O20      1.0000 0.50252  0.14653  0.85512  Biso   1.000  O
  O21      1.0000 0.84293  0.50199  0.14463  Biso   1.000  O
  O22      1.0000 0.87587  0.18241  0.50574  Biso   1.000  O
  O23      1.0000 0.49894  0.83990  0.12763  Biso   1.000  O
  O24      1.0000 0.15424  0.50333  0.84819  Biso   1.000  O
  Si1      1.0000 0.11378  0.33973  0.88433  Biso   1.000  Si
  Si2      1.0000 0.33401  0.87527  0.10284  Biso   1.000  Si
  Si3      1.0000 0.66558  0.89430  0.11721  Biso   1.000  Si
  Si4      1.0000 0.90024  0.13081  0.66850  Biso   1.000  Si
  Si5      1.0000 0.11860  0.66805  0.89021  Biso   1.000  Si
  Si6      1.0000 0.89710  0.66675  0.12155  Biso   1.000  Si
  Si7      1.0000 0.12121  0.89701  0.66419  Biso   1.000  Si
  Si8      1.0000 0.67068  0.12049  0.89316  Biso   1.000  Si
  Si9      1.0000 0.33513  0.10649  0.88279  Biso   1.000  Si
  Si10     1.0000 0.11176  0.86915  0.33147  Biso   1.000  Si
  Si11     1.0000 0.88109  0.33972  0.10500  Biso   1.000  Si
  Al1      1.0000 0.87534  0.09718  0.32732  Biso   1.000  Al
  Cu1      1.0000 0.98062  0.36253  0.44647  Biso   1.000  Cu
  O25      1.0000 0.08506  0.52334  0.49973  Biso   1.000  O
  H1       1.0000 0.22111  0.52233  0.49808  Biso   1.000  H
  C1       1.0000 0.35378  0.51148  0.50046  Biso   1.000  C
  H2       1.0000 0.39920  0.62251  0.49840  Biso   1.000  H
  H3       1.0000 0.37932  0.46627  0.60200  Biso   1.000  H
  H4       1.0000 0.37245  0.44105  0.40648  Biso   1.000  H
