data_image0
_cell_length_a       9.33403
_cell_length_b       9.33413
_cell_length_c       9.33383
_cell_angle_alpha    94.5421
_cell_angle_beta     94.5397
_cell_angle_gamma    94.5446

_symmetry_space_group_name_H-M    "P 1"
_symmetry_int_tables_number       1

loop_
  _symmetry_equiv_pos_as_xyz
  'x, y, z'

loop_
  _atom_site_label
  _atom_site_occupancy
  _atom_site_fract_x
  _atom_site_fract_y
  _atom_site_fract_z
  _atom_site_thermal_displace_type
  _atom_site_B_iso_or_equiv
  _atom_site_type_symbol
  O1       1.0000 0.71971  0.41154  0.97055  Biso   1.000  O
  O2       1.0000 0.49772  0.18067  0.38055  Biso   1.000  O
  O3       1.0000 0.38038  0.44006  0.33389  Biso   1.000  O
  O4       1.0000 0.81060  0.19002  0.09231  Biso   1.000  O
  O5       1.0000 0.73253  0.05881  0.31464  Biso   1.000  O
  O6       1.0000 0.50008  0.49770  0.09710  Biso   1.000  O
  O7       1.0000 0.23024  0.92496  0.16850  Biso   1.000  O
  O8       1.0000 0.44214  0.15249  0.74732  Biso   1.000  O
  O9       1.0000 0.21851  0.28949  0.81683  Biso   1.000  O
  O10      1.0000 0.44271  0.83770  0.02545  Biso   1.000  O
  O11      1.0000 0.58733  0.89911  0.80117  Biso   1.000  O
  O12      1.0000 0.13618  0.13591  0.02797  Biso   1.000  O
  O13      1.0000 0.72151  0.91008  0.06324  Biso   1.000  O
  O14      1.0000 0.47287  0.43754  0.81279  Biso   1.000  O
  O15      1.0000 0.18870  0.17182  0.31305  Biso   1.000  O
  O16      1.0000 0.22389  0.41040  0.08492  Biso   1.000  O
  O17      1.0000 0.48550  0.89917  0.30754  Biso   1.000  O
  O18      1.0000 0.74878  0.17389  0.80853  Biso   1.000  O
  O19      1.0000 0.61954  0.00219  0.55394  Biso   1.000  O
  O20      1.0000 0.97775  0.33701  0.93249  Biso   1.000  O
  O21      1.0000 0.31756  0.67067  0.20360  Biso   1.000  O
  O22      1.0000 0.34378  0.34242  0.57366  Biso   1.000  O
  O23      1.0000 0.96988  0.99470  0.19733  Biso   1.000  O
  O24      1.0000 0.63075  0.66394  0.92534  Biso   1.000  O
  Si1      1.0000 0.58177  0.50043  0.95125  Biso   1.000  Si
  Si2      1.0000 0.80776  0.04015  0.16599  Biso   1.000  Si
  Si3      1.0000 0.13294  0.05986  0.17847  Biso   1.000  Si
  Si4      1.0000 0.36750  0.29816  0.74021  Biso   1.000  Si
  Si5      1.0000 0.59439  0.82944  0.95292  Biso   1.000  Si
  Si6      1.0000 0.36916  0.83505  0.17636  Biso   1.000  Si
  Al1      1.0000 0.59897  0.06947  0.73246  Biso   1.000  Al
  Si7      1.0000 0.13929  0.29256  0.96483  Biso   1.000  Si
  Si8      1.0000 0.81333  0.27471  0.94675  Biso   1.000  Si
  Si9      1.0000 0.58210  0.03957  0.38870  Biso   1.000  Si
  Si10     1.0000 0.35440  0.50574  0.17852  Biso   1.000  Si
  Al2      1.0000 0.34130  0.26440  0.39280  Biso   1.000  Al
  Cu1      1.0000 0.48606  0.49588  0.52782  Biso   1.000  Cu
  O25      1.0000 0.64857  0.61222  0.53565  Biso   1.000  O
  Cu2      1.0000 0.62901  0.79734  0.59406  Biso   1.000  Cu
  C1       1.0000 0.82458  0.58463  0.33414  Biso   1.000  C
  H1       1.0000 0.74433  0.59499  0.43503  Biso   1.000  H
  H2       1.0000 0.76226  0.62745  0.24574  Biso   1.000  H
  H3       1.0000 0.83429  0.46882  0.31684  Biso   1.000  H
  O26      1.0000 0.95789  0.65692  0.37243  Biso   1.000  O
  H4       1.0000 0.96293  0.75304  0.34215  Biso   1.000  H
