data_image0
_cell_length_a       9.33403
_cell_length_b       9.33413
_cell_length_c       9.33383
_cell_angle_alpha    94.5421
_cell_angle_beta     94.5397
_cell_angle_gamma    94.5446

_symmetry_space_group_name_H-M    "P 1"
_symmetry_int_tables_number       1

loop_
  _symmetry_equiv_pos_as_xyz
  'x, y, z'

loop_
  _atom_site_label
  _atom_site_occupancy
  _atom_site_fract_x
  _atom_site_fract_y
  _atom_site_fract_z
  _atom_site_thermal_displace_type
  _atom_site_B_iso_or_equiv
  _atom_site_type_symbol
  O1       1.0000 0.26186  0.25688  0.90262  Biso   1.000  O
  O2       1.0000 0.01609  0.00479  0.30550  Biso   1.000  O
  O3       1.0000 0.89403  0.26752  0.25501  Biso   1.000  O
  O4       1.0000 0.32575  0.01962  0.02098  Biso   1.000  O
  O5       1.0000 0.26289  0.89171  0.25224  Biso   1.000  O
  O6       1.0000 0.03834  0.34274  0.03868  Biso   1.000  O
  O7       1.0000 0.76508  0.76406  0.12128  Biso   1.000  O
  O8       1.0000 0.97455  0.97206  0.66866  Biso   1.000  O
  O9       1.0000 0.74641  0.09978  0.74043  Biso   1.000  O
  O10      1.0000 0.96996  0.67601  0.96477  Biso   1.000  O
  O11      1.0000 0.11107  0.74981  0.74266  Biso   1.000  O
  O12      1.0000 0.67950  0.97270  0.97338  Biso   1.000  O
  O13      1.0000 0.25260  0.73609  0.99863  Biso   1.000  O
  O14      1.0000 0.00414  0.25126  0.76289  Biso   1.000  O
  O15      1.0000 0.70645  0.00848  0.26353  Biso   1.000  O
  O16      1.0000 0.75558  0.25570  0.99096  Biso   1.000  O
  O17      1.0000 0.02289  0.71987  0.25382  Biso   1.000  O
  O18      1.0000 0.25879  0.00795  0.73722  Biso   1.000  O
  O19      1.0000 0.15410  0.85086  0.49582  Biso   1.000  O
  O20      1.0000 0.50469  0.14909  0.85198  Biso   1.000  O
  O21      1.0000 0.84017  0.50441  0.13794  Biso   1.000  O
  O22      1.0000 0.87880  0.17865  0.51119  Biso   1.000  O
  O23      1.0000 0.49848  0.83010  0.12890  Biso   1.000  O
  O24      1.0000 0.14943  0.49967  0.84225  Biso   1.000  O
  Si1      1.0000 0.11462  0.33726  0.88864  Biso   1.000  Si
  Si2      1.0000 0.33493  0.87095  0.10083  Biso   1.000  Si
  Si3      1.0000 0.66357  0.89678  0.12486  Biso   1.000  Si
  Si4      1.0000 0.89946  0.12367  0.67190  Biso   1.000  Si
  Si5      1.0000 0.11978  0.66581  0.88770  Biso   1.000  Si
  Si6      1.0000 0.89995  0.66859  0.11950  Biso   1.000  Si
  Si7      1.0000 0.12570  0.89667  0.66143  Biso   1.000  Si
  Si8      1.0000 0.67157  0.11903  0.89158  Biso   1.000  Si
  Si9      1.0000 0.33768  0.10706  0.87800  Biso   1.000  Si
  Si10     1.0000 0.11124  0.87300  0.32623  Biso   1.000  Si
  Si11     1.0000 0.88091  0.34018  0.10492  Biso   1.000  Si
  Al1      1.0000 0.86749  0.10144  0.32921  Biso   1.000  Al
  Cu1      1.0000 0.00354  0.35448  0.46392  Biso   1.000  Cu
  O25      1.0000 0.15452  0.49078  0.43378  Biso   1.000  O
  H1       1.0000 0.26589  0.52571  0.49404  Biso   1.000  H
  C1       1.0000 0.40977  0.57287  0.55467  Biso   1.000  C
  H2       1.0000 0.42156  0.68654  0.53607  Biso   1.000  H
  H3       1.0000 0.40481  0.54904  0.66642  Biso   1.000  H
  H4       1.0000 0.47239  0.50340  0.48985  Biso   1.000  H
  H5       1.0000 0.12544  0.57611  0.38954  Biso   1.000  H
