data_image0
_cell_length_a       9.33403
_cell_length_b       9.33413
_cell_length_c       9.33383
_cell_angle_alpha    94.5421
_cell_angle_beta     94.5397
_cell_angle_gamma    94.5446

_symmetry_space_group_name_H-M    "P 1"
_symmetry_int_tables_number       1

loop_
  _symmetry_equiv_pos_as_xyz
  'x, y, z'

loop_
  _atom_site_label
  _atom_site_occupancy
  _atom_site_fract_x
  _atom_site_fract_y
  _atom_site_fract_z
  _atom_site_thermal_displace_type
  _atom_site_B_iso_or_equiv
  _atom_site_type_symbol
  O1       1.0000 0.26257  0.25641  0.90691  Biso   1.000  O
  O2       1.0000 0.02018  0.00940  0.30552  Biso   1.000  O
  O3       1.0000 0.88346  0.26467  0.25158  Biso   1.000  O
  O4       1.0000 0.32853  0.01656  0.01852  Biso   1.000  O
  O5       1.0000 0.26214  0.88826  0.24851  Biso   1.000  O
  O6       1.0000 0.03879  0.34371  0.04281  Biso   1.000  O
  O7       1.0000 0.76455  0.76404  0.11331  Biso   1.000  O
  O8       1.0000 0.97291  0.96696  0.66540  Biso   1.000  O
  O9       1.0000 0.74576  0.09396  0.74029  Biso   1.000  O
  O10      1.0000 0.97331  0.67659  0.96426  Biso   1.000  O
  O11      1.0000 0.11450  0.74698  0.73974  Biso   1.000  O
  O12      1.0000 0.67902  0.98202  0.98173  Biso   1.000  O
  O13      1.0000 0.25661  0.73255  0.99464  Biso   1.000  O
  O14      1.0000 0.00389  0.24303  0.77024  Biso   1.000  O
  O15      1.0000 0.70962  0.99946  0.27287  Biso   1.000  O
  O16      1.0000 0.75544  0.26316  0.98310  Biso   1.000  O
  O17      1.0000 0.01916  0.72349  0.25387  Biso   1.000  O
  O18      1.0000 0.25650  0.00885  0.73660  Biso   1.000  O
  O19      1.0000 0.15630  0.85093  0.49394  Biso   1.000  O
  O20      1.0000 0.50387  0.14999  0.84902  Biso   1.000  O
  O21      1.0000 0.84002  0.50614  0.13809  Biso   1.000  O
  O22      1.0000 0.88243  0.17913  0.51386  Biso   1.000  O
  O23      1.0000 0.49981  0.82823  0.13075  Biso   1.000  O
  O24      1.0000 0.14687  0.49584  0.84073  Biso   1.000  O
  Si1      1.0000 0.11401  0.33474  0.89214  Biso   1.000  Si
  Si2      1.0000 0.33625  0.86803  0.09836  Biso   1.000  Si
  Si3      1.0000 0.66464  0.89739  0.12791  Biso   1.000  Si
  Si4      1.0000 0.89958  0.11984  0.67329  Biso   1.000  Si
  Si5      1.0000 0.12150  0.66332  0.88545  Biso   1.000  Si
  Si6      1.0000 0.90024  0.66957  0.11743  Biso   1.000  Si
  Si7      1.0000 0.12594  0.89505  0.65958  Biso   1.000  Si
  Si8      1.0000 0.67109  0.12231  0.89080  Biso   1.000  Si
  Si9      1.0000 0.33763  0.10675  0.87718  Biso   1.000  Si
  Si10     1.0000 0.11145  0.87453  0.32468  Biso   1.000  Si
  Si11     1.0000 0.87869  0.34110  0.10417  Biso   1.000  Si
  Al1      1.0000 0.86835  0.10171  0.33105  Biso   1.000  Al
  Cu1      1.0000 0.00761  0.35234  0.47029  Biso   1.000  Cu
  O25      1.0000 0.15212  0.49004  0.43198  Biso   1.000  O
  H1       1.0000 0.27172  0.52946  0.49526  Biso   1.000  H
  C1       1.0000 0.40669  0.57521  0.55231  Biso   1.000  C
  H2       1.0000 0.41623  0.68973  0.53363  Biso   1.000  H
  H3       1.0000 0.40427  0.55119  0.66461  Biso   1.000  H
  H4       1.0000 0.11632  0.57824  0.39998  Biso   1.000  H
  O26      1.0000 0.50273  0.49249  0.48499  Biso   1.000  O
  H5       1.0000 0.52288  0.52908  0.39355  Biso   1.000  H
