data_image0
_cell_length_a       9.46362
_cell_length_b       9.46352
_cell_length_c       9.4638
_cell_angle_alpha    94.5227
_cell_angle_beta     94.5193
_cell_angle_gamma    94.5229

_symmetry_space_group_name_H-M    "P 1"
_symmetry_int_tables_number       1

loop_
  _symmetry_equiv_pos_as_xyz
  'x, y, z'

loop_
  _atom_site_label
  _atom_site_occupancy
  _atom_site_fract_x
  _atom_site_fract_y
  _atom_site_fract_z
  _atom_site_thermal_displace_type
  _atom_site_B_iso_or_equiv
  _atom_site_type_symbol
  P1       1.0000 0.11108  0.32684  0.88198  Biso   1.000  P
  Si1      1.0000 0.87471  0.10678  0.32738  Biso   1.000  Si
  P2       1.0000 0.33196  0.86367  0.10143  Biso   1.000  P
  Al1      1.0000 0.66231  0.89790  0.12061  Biso   1.000  Al
  Al2      1.0000 0.89834  0.11301  0.66766  Biso   1.000  Al
  Al3      1.0000 0.12115  0.65855  0.88782  Biso   1.000  Al
  P3       1.0000 0.88844  0.66627  0.10871  Biso   1.000  P
  P4       1.0000 0.12195  0.88504  0.65532  Biso   1.000  P
  P5       1.0000 0.66238  0.11721  0.88344  Biso   1.000  P
  Al4      1.0000 0.33087  0.09455  0.86954  Biso   1.000  Al
  Al5      1.0000 0.10035  0.87444  0.32147  Biso   1.000  Al
  Al6      1.0000 0.87261  0.33504  0.09596  Biso   1.000  Al
  O1       1.0000 0.24780  0.25186  0.90101  Biso   1.000  O
  O2       1.0000 0.01722  0.02964  0.30798  Biso   1.000  O
  O3       1.0000 0.88247  0.26690  0.26408  Biso   1.000  O
  O4       1.0000 0.32256  0.99718  0.01892  Biso   1.000  O
  O5       1.0000 0.25938  0.88637  0.23876  Biso   1.000  O
  O6       1.0000 0.03605  0.32539  0.02059  Biso   1.000  O
  O7       1.0000 0.75670  0.74807  0.09568  Biso   1.000  O
  O8       1.0000 0.97910  0.95236  0.66665  Biso   1.000  O
  O9       1.0000 0.73799  0.09852  0.74688  Biso   1.000  O
  O10      1.0000 0.96118  0.67162  0.96889  Biso   1.000  O
  O11      1.0000 0.11944  0.75189  0.73646  Biso   1.000  O
  O12      1.0000 0.66755  0.98081  0.95972  Biso   1.000  O
  O13      1.0000 0.26150  0.73230  0.00955  Biso   1.000  O
  O14      1.0000 0.01230  0.25103  0.75833  Biso   1.000  O
  O15      1.0000 0.73298  0.01317  0.26294  Biso   1.000  O
  O16      1.0000 0.73489  0.24550  0.97975  Biso   1.000  O
  O17      1.0000 0.99133  0.72615  0.23663  Biso   1.000  O
  O18      1.0000 0.24513  0.99369  0.71849  Biso   1.000  O
  O19      1.0000 0.14279  0.84243  0.49991  Biso   1.000  O
  O20      1.0000 0.50807  0.14620  0.84214  Biso   1.000  O
  O21      1.0000 0.83855  0.51196  0.13030  Biso   1.000  O
  O22      1.0000 0.86440  0.16643  0.49556  Biso   1.000  O
  O23      1.0000 0.48666  0.83786  0.14016  Biso   1.000  O
  O24      1.0000 0.14931  0.47964  0.84722  Biso   1.000  O
  Cu1      1.0000 0.86498  0.37535  0.45376  Biso   1.000  Cu
  O25      1.0000 0.86474  0.52713  0.57416  Biso   1.000  O
  C1       1.0000 0.63043  0.56609  0.69108  Biso   1.000  C
  H1       1.0000 0.66940  0.64643  0.77726  Biso   1.000  H
  H2       1.0000 0.59937  0.46151  0.72677  Biso   1.000  H
  H3       1.0000 0.73810  0.54841  0.62781  Biso   1.000  H
  O26      1.0000 0.52645  0.62039  0.60368  Biso   1.000  O
  H4       1.0000 0.47224  0.54401  0.54368  Biso   1.000  H
