data_image0
_cell_length_a       9.33403
_cell_length_b       9.33413
_cell_length_c       9.33383
_cell_angle_alpha    94.5421
_cell_angle_beta     94.5397
_cell_angle_gamma    94.5446

_symmetry_space_group_name_H-M    "P 1"
_symmetry_int_tables_number       1

loop_
  _symmetry_equiv_pos_as_xyz
  'x, y, z'

loop_
  _atom_site_label
  _atom_site_occupancy
  _atom_site_fract_x
  _atom_site_fract_y
  _atom_site_fract_z
  _atom_site_thermal_displace_type
  _atom_site_B_iso_or_equiv
  _atom_site_type_symbol
  O1       1.0000 0.72134  0.40442  0.96526  Biso   1.000  O
  O2       1.0000 0.49726  0.16163  0.38357  Biso   1.000  O
  O3       1.0000 0.38273  0.42000  0.32259  Biso   1.000  O
  O4       1.0000 0.80465  0.18670  0.09783  Biso   1.000  O
  O5       1.0000 0.73541  0.04264  0.31724  Biso   1.000  O
  O6       1.0000 0.50194  0.49552  0.09417  Biso   1.000  O
  O7       1.0000 0.23009  0.91010  0.17083  Biso   1.000  O
  O8       1.0000 0.44442  0.14758  0.74712  Biso   1.000  O
  O9       1.0000 0.21792  0.28061  0.81185  Biso   1.000  O
  O10      1.0000 0.44172  0.81981  0.02737  Biso   1.000  O
  O11      1.0000 0.58107  0.88564  0.79929  Biso   1.000  O
  O12      1.0000 0.15183  0.12779  0.02918  Biso   1.000  O
  O13      1.0000 0.71889  0.90798  0.05976  Biso   1.000  O
  O14      1.0000 0.47212  0.43283  0.81139  Biso   1.000  O
  O15      1.0000 0.19094  0.15766  0.31534  Biso   1.000  O
  O16      1.0000 0.22439  0.40806  0.07254  Biso   1.000  O
  O17      1.0000 0.48942  0.88120  0.30888  Biso   1.000  O
  O18      1.0000 0.74836  0.15746  0.81312  Biso   1.000  O
  O19      1.0000 0.62042  0.98504  0.55644  Biso   1.000  O
  O20      1.0000 0.97758  0.31752  0.93240  Biso   1.000  O
  O21      1.0000 0.31549  0.65769  0.20988  Biso   1.000  O
  O22      1.0000 0.34544  0.33533  0.57145  Biso   1.000  O
  O23      1.0000 0.97103  0.99070  0.18924  Biso   1.000  O
  O24      1.0000 0.63674  0.65729  0.92186  Biso   1.000  O
  Si1      1.0000 0.58338  0.49399  0.94883  Biso   1.000  Si
  Si2      1.0000 0.80801  0.03395  0.16642  Biso   1.000  Si
  Si3      1.0000 0.13737  0.04949  0.17787  Biso   1.000  Si
  Si4      1.0000 0.36780  0.29234  0.73771  Biso   1.000  Si
  Si5      1.0000 0.59321  0.81942  0.95516  Biso   1.000  Si
  Si6      1.0000 0.36921  0.82002  0.17983  Biso   1.000  Si
  Al1      1.0000 0.59731  0.06042  0.73226  Biso   1.000  Al
  Si7      1.0000 0.14215  0.28173  0.96156  Biso   1.000  Si
  Si8      1.0000 0.81172  0.26410  0.94824  Biso   1.000  Si
  Si9      1.0000 0.58411  0.02287  0.39024  Biso   1.000  Si
  Si10     1.0000 0.35469  0.49412  0.17466  Biso   1.000  Si
  Al2      1.0000 0.34421  0.25242  0.39223  Biso   1.000  Al
  Fe1      1.0000 0.49067  0.49926  0.53114  Biso   1.000  Fe
  O25      1.0000 0.66466  0.60571  0.51362  Biso   1.000  O
  Fe2      1.0000 0.62485  0.77415  0.61434  Biso   1.000  Fe
  C1       1.0000 0.85707  0.55927  0.33183  Biso   1.000  C
  H1       1.0000 0.75593  0.58827  0.43760  Biso   1.000  H
  H2       1.0000 0.81486  0.61977  0.24475  Biso   1.000  H
  H3       1.0000 0.83710  0.44219  0.31302  Biso   1.000  H
  O26      1.0000 0.99909  0.59715  0.37920  Biso   1.000  O
  H4       1.0000 0.03047  0.68945  0.34752  Biso   1.000  H
