data_image0
_cell_length_a       9.33403
_cell_length_b       9.33413
_cell_length_c       9.33383
_cell_angle_alpha    94.5421
_cell_angle_beta     94.5397
_cell_angle_gamma    94.5446

_symmetry_space_group_name_H-M    "P 1"
_symmetry_int_tables_number       1

loop_
  _symmetry_equiv_pos_as_xyz
  'x, y, z'

loop_
  _atom_site_label
  _atom_site_occupancy
  _atom_site_fract_x
  _atom_site_fract_y
  _atom_site_fract_z
  _atom_site_thermal_displace_type
  _atom_site_B_iso_or_equiv
  _atom_site_type_symbol
  O1       1.0000 0.25466  0.25261  0.90159  Biso   1.000  O
  O2       1.0000 0.03181  0.01370  0.31625  Biso   1.000  O
  O3       1.0000 0.90375  0.26682  0.25715  Biso   1.000  O
  O4       1.0000 0.32120  0.02605  0.03111  Biso   1.000  O
  O5       1.0000 0.26059  0.88034  0.25380  Biso   1.000  O
  O6       1.0000 0.03042  0.33904  0.02923  Biso   1.000  O
  O7       1.0000 0.75383  0.75088  0.10413  Biso   1.000  O
  O8       1.0000 0.97381  0.97900  0.66649  Biso   1.000  O
  O9       1.0000 0.75067  0.11455  0.74685  Biso   1.000  O
  O10      1.0000 0.97174  0.66258  0.97079  Biso   1.000  O
  O11      1.0000 0.09694  0.75304  0.74951  Biso   1.000  O
  O12      1.0000 0.68473  0.97145  0.96814  Biso   1.000  O
  O13      1.0000 0.25080  0.74514  0.99586  Biso   1.000  O
  O14      1.0000 0.00556  0.26059  0.75092  Biso   1.000  O
  O15      1.0000 0.72316  0.00026  0.25348  Biso   1.000  O
  O16      1.0000 0.75041  0.25323  0.00235  Biso   1.000  O
  O17      1.0000 0.00653  0.73537  0.25397  Biso   1.000  O
  O18      1.0000 0.25370  0.00184  0.74849  Biso   1.000  O
  O19      1.0000 0.15417  0.85321  0.50167  Biso   1.000  O
  O20      1.0000 0.50171  0.14486  0.86000  Biso   1.000  O
  O21      1.0000 0.84502  0.50168  0.14962  Biso   1.000  O
  O22      1.0000 0.87375  0.17915  0.50692  Biso   1.000  O
  O23      1.0000 0.49878  0.84153  0.12659  Biso   1.000  O
  O24      1.0000 0.15499  0.50217  0.84761  Biso   1.000  O
  Si1      1.0000 0.11329  0.33921  0.88366  Biso   1.000  Si
  Si2      1.0000 0.33298  0.87422  0.10343  Biso   1.000  Si
  Si3      1.0000 0.66602  0.89256  0.11616  Biso   1.000  Si
  Si4      1.0000 0.89931  0.12879  0.67029  Biso   1.000  Si
  Si5      1.0000 0.11902  0.66640  0.89051  Biso   1.000  Si
  Si6      1.0000 0.89615  0.66635  0.12106  Biso   1.000  Si
  Si7      1.0000 0.12143  0.89566  0.66524  Biso   1.000  Si
  Si8      1.0000 0.67033  0.12063  0.89497  Biso   1.000  Si
  Si9      1.0000 0.33350  0.10491  0.88413  Biso   1.000  Si
  Si10     1.0000 0.11218  0.87076  0.33232  Biso   1.000  Si
  Si11     1.0000 0.88117  0.33945  0.10542  Biso   1.000  Si
  Al1      1.0000 0.87673  0.09576  0.32706  Biso   1.000  Al
  Fe1      1.0000 0.96583  0.37430  0.45491  Biso   1.000  Fe
  O25      1.0000 0.08940  0.52880  0.48173  Biso   1.000  O
  H1       1.0000 0.22717  0.52513  0.49168  Biso   1.000  H
  C1       1.0000 0.35802  0.51273  0.49953  Biso   1.000  C
  H2       1.0000 0.40622  0.62268  0.49859  Biso   1.000  H
  H3       1.0000 0.38046  0.46683  0.60147  Biso   1.000  H
  H4       1.0000 0.37786  0.44158  0.40646  Biso   1.000  H
