data_image0
_cell_length_a       9.33403
_cell_length_b       9.33413
_cell_length_c       9.33383
_cell_angle_alpha    94.5421
_cell_angle_beta     94.5397
_cell_angle_gamma    94.5446

_symmetry_space_group_name_H-M    "P 1"
_symmetry_int_tables_number       1

loop_
  _symmetry_equiv_pos_as_xyz
  'x, y, z'

loop_
  _atom_site_label
  _atom_site_occupancy
  _atom_site_fract_x
  _atom_site_fract_y
  _atom_site_fract_z
  _atom_site_thermal_displace_type
  _atom_site_B_iso_or_equiv
  _atom_site_type_symbol
  O1       1.0000 0.72191  0.40326  0.96341  Biso   1.000  O
  O2       1.0000 0.49792  0.16115  0.38692  Biso   1.000  O
  O3       1.0000 0.38072  0.41710  0.32024  Biso   1.000  O
  O4       1.0000 0.80259  0.18593  0.09748  Biso   1.000  O
  O5       1.0000 0.73046  0.03761  0.31432  Biso   1.000  O
  O6       1.0000 0.50218  0.49255  0.09311  Biso   1.000  O
  O7       1.0000 0.22657  0.90735  0.16371  Biso   1.000  O
  O8       1.0000 0.44401  0.14504  0.74442  Biso   1.000  O
  O9       1.0000 0.21780  0.27870  0.81027  Biso   1.000  O
  O10      1.0000 0.44197  0.81843  0.02716  Biso   1.000  O
  O11      1.0000 0.57903  0.88221  0.79706  Biso   1.000  O
  O12      1.0000 0.15118  0.12688  0.02821  Biso   1.000  O
  O13      1.0000 0.71895  0.90700  0.05632  Biso   1.000  O
  O14      1.0000 0.47255  0.43033  0.81026  Biso   1.000  O
  O15      1.0000 0.19114  0.15446  0.31399  Biso   1.000  O
  O16      1.0000 0.22379  0.40696  0.06969  Biso   1.000  O
  O17      1.0000 0.48095  0.88096  0.30985  Biso   1.000  O
  O18      1.0000 0.74723  0.15499  0.81244  Biso   1.000  O
  O19      1.0000 0.61966  0.97981  0.55512  Biso   1.000  O
  O20      1.0000 0.97677  0.31522  0.93045  Biso   1.000  O
  O21      1.0000 0.31468  0.65514  0.20697  Biso   1.000  O
  O22      1.0000 0.34433  0.33439  0.57023  Biso   1.000  O
  O23      1.0000 0.96929  0.99156  0.18883  Biso   1.000  O
  O24      1.0000 0.63591  0.65545  0.91999  Biso   1.000  O
  Si1      1.0000 0.58363  0.49213  0.94784  Biso   1.000  Si
  Si2      1.0000 0.80600  0.03247  0.16519  Biso   1.000  Si
  Si3      1.0000 0.13562  0.04728  0.17603  Biso   1.000  Si
  Si4      1.0000 0.36788  0.29026  0.73639  Biso   1.000  Si
  Si5      1.0000 0.59254  0.81750  0.95383  Biso   1.000  Si
  Si6      1.0000 0.36555  0.81810  0.17747  Biso   1.000  Si
  Al1      1.0000 0.59681  0.05728  0.73050  Biso   1.000  Al
  Si7      1.0000 0.14150  0.27990  0.95968  Biso   1.000  Si
  Si8      1.0000 0.81100  0.26201  0.94724  Biso   1.000  Si
  Si9      1.0000 0.58090  0.01959  0.38990  Biso   1.000  Si
  Si10     1.0000 0.35423  0.49196  0.17217  Biso   1.000  Si
  Al2      1.0000 0.34360  0.24975  0.39114  Biso   1.000  Al
  Te1      1.0000 0.48997  0.49518  0.52811  Biso   1.000  Te
  O25      1.0000 0.66449  0.60234  0.50984  Biso   1.000  O
  Te2      1.0000 0.62410  0.76976  0.61423  Biso   1.000  Te
  C1       1.0000 0.86926  0.57488  0.33290  Biso   1.000  C
  H1       1.0000 0.74765  0.58959  0.43774  Biso   1.000  H
  H2       1.0000 0.84688  0.65926  0.26282  Biso   1.000  H
  H3       1.0000 0.84326  0.46544  0.28468  Biso   1.000  H
  H4       1.0000 0.96663  0.59407  0.40590  Biso   1.000  H
