data_image0
_cell_length_a       9.33403
_cell_length_b       9.33413
_cell_length_c       9.33383
_cell_angle_alpha    94.5421
_cell_angle_beta     94.5397
_cell_angle_gamma    94.5446

_symmetry_space_group_name_H-M    "P 1"
_symmetry_int_tables_number       1

loop_
  _symmetry_equiv_pos_as_xyz
  'x, y, z'

loop_
  _atom_site_label
  _atom_site_occupancy
  _atom_site_fract_x
  _atom_site_fract_y
  _atom_site_fract_z
  _atom_site_thermal_displace_type
  _atom_site_B_iso_or_equiv
  _atom_site_type_symbol
  O1       1.0000 0.72084  0.39995  0.95595  Biso   1.000  O
  O2       1.0000 0.48902  0.15827  0.38052  Biso   1.000  O
  O3       1.0000 0.38445  0.42707  0.33171  Biso   1.000  O
  O4       1.0000 0.81166  0.18950  0.09747  Biso   1.000  O
  O5       1.0000 0.73573  0.05066  0.31862  Biso   1.000  O
  O6       1.0000 0.50609  0.48796  0.09656  Biso   1.000  O
  O7       1.0000 0.23103  0.91297  0.17220  Biso   1.000  O
  O8       1.0000 0.45057  0.14706  0.75171  Biso   1.000  O
  O9       1.0000 0.21806  0.27524  0.81337  Biso   1.000  O
  O10      1.0000 0.43425  0.81841  0.01589  Biso   1.000  O
  O11      1.0000 0.58063  0.87943  0.79178  Biso   1.000  O
  O12      1.0000 0.13795  0.12125  0.02533  Biso   1.000  O
  O13      1.0000 0.71085  0.91458  0.05740  Biso   1.000  O
  O14      1.0000 0.47059  0.43673  0.80797  Biso   1.000  O
  O15      1.0000 0.18205  0.16228  0.31342  Biso   1.000  O
  O16      1.0000 0.22818  0.39800  0.07970  Biso   1.000  O
  O17      1.0000 0.49340  0.87727  0.29896  Biso   1.000  O
  O18      1.0000 0.75741  0.15054  0.80916  Biso   1.000  O
  O19      1.0000 0.61659  0.97983  0.55064  Biso   1.000  O
  O20      1.0000 0.98022  0.32686  0.92827  Biso   1.000  O
  O21      1.0000 0.31333  0.65584  0.20275  Biso   1.000  O
  O22      1.0000 0.33879  0.33139  0.57395  Biso   1.000  O
  O23      1.0000 0.96651  0.98019  0.19140  Biso   1.000  O
  O24      1.0000 0.64129  0.65707  0.92594  Biso   1.000  O
  Si1      1.0000 0.58472  0.49275  0.94821  Biso   1.000  Si
  Si2      1.0000 0.80704  0.03508  0.16629  Biso   1.000  Si
  Si3      1.0000 0.13098  0.04710  0.17864  Biso   1.000  Si
  Si4      1.0000 0.36821  0.28917  0.73969  Biso   1.000  Si
  Si5      1.0000 0.59083  0.81867  0.95078  Biso   1.000  Si
  Si6      1.0000 0.36715  0.81901  0.17276  Biso   1.000  Si
  Al1      1.0000 0.60186  0.05648  0.72931  Biso   1.000  Al
  Si7      1.0000 0.14073  0.27895  0.96262  Biso   1.000  Si
  Si8      1.0000 0.81608  0.26253  0.94361  Biso   1.000  Si
  Si9      1.0000 0.58096  0.02212  0.38494  Biso   1.000  Si
  Si10     1.0000 0.35753  0.49234  0.17695  Biso   1.000  Si
  Al2      1.0000 0.33835  0.25364  0.39301  Biso   1.000  Al
  Te1      1.0000 0.48797  0.50042  0.54202  Biso   1.000  Te
  O25      1.0000 0.67420  0.59092  0.52750  Biso   1.000  O
  Te2      1.0000 0.62964  0.77010  0.60399  Biso   1.000  Te
  C1       1.0000 0.86460  0.57200  0.32488  Biso   1.000  C
  H1       1.0000 0.74439  0.58166  0.44392  Biso   1.000  H
  H2       1.0000 0.83912  0.65424  0.25312  Biso   1.000  H
  H3       1.0000 0.83772  0.46038  0.28329  Biso   1.000  H
  H4       1.0000 0.96157  0.59532  0.39786  Biso   1.000  H
