data_image0
_cell_length_a       9.33403
_cell_length_b       9.33413
_cell_length_c       9.33383
_cell_angle_alpha    94.5421
_cell_angle_beta     94.5397
_cell_angle_gamma    94.5446

_symmetry_space_group_name_H-M    "P 1"
_symmetry_int_tables_number       1

loop_
  _symmetry_equiv_pos_as_xyz
  'x, y, z'

loop_
  _atom_site_label
  _atom_site_occupancy
  _atom_site_fract_x
  _atom_site_fract_y
  _atom_site_fract_z
  _atom_site_thermal_displace_type
  _atom_site_B_iso_or_equiv
  _atom_site_type_symbol
  O1       1.0000 0.25679  0.25253  0.90024  Biso   1.000  O
  O2       1.0000 0.02838  0.00754  0.31450  Biso   1.000  O
  O3       1.0000 0.90138  0.26769  0.25881  Biso   1.000  O
  O4       1.0000 0.32636  0.02599  0.03043  Biso   1.000  O
  O5       1.0000 0.25994  0.88065  0.25260  Biso   1.000  O
  O6       1.0000 0.03131  0.33248  0.03053  Biso   1.000  O
  O7       1.0000 0.75580  0.75255  0.11173  Biso   1.000  O
  O8       1.0000 0.97423  0.97581  0.66401  Biso   1.000  O
  O9       1.0000 0.75151  0.10988  0.74684  Biso   1.000  O
  O10      1.0000 0.97209  0.67136  0.97059  Biso   1.000  O
  O11      1.0000 0.09937  0.75075  0.74757  Biso   1.000  O
  O12      1.0000 0.68175  0.96910  0.96840  Biso   1.000  O
  O13      1.0000 0.25190  0.74530  0.99496  Biso   1.000  O
  O14      1.0000 0.00634  0.25630  0.75233  Biso   1.000  O
  O15      1.0000 0.72090  0.00290  0.25342  Biso   1.000  O
  O16      1.0000 0.75037  0.24997  0.00211  Biso   1.000  O
  O17      1.0000 0.01033  0.72713  0.25551  Biso   1.000  O
  O18      1.0000 0.25352  0.00131  0.74790  Biso   1.000  O
  O19      1.0000 0.15570  0.85003  0.50083  Biso   1.000  O
  O20      1.0000 0.50244  0.14469  0.85476  Biso   1.000  O
  O21      1.0000 0.84450  0.50054  0.14059  Biso   1.000  O
  O22      1.0000 0.87238  0.17622  0.50690  Biso   1.000  O
  O23      1.0000 0.49885  0.83920  0.12904  Biso   1.000  O
  O24      1.0000 0.15141  0.50104  0.85104  Biso   1.000  O
  Si1      1.0000 0.11291  0.33664  0.88456  Biso   1.000  Si
  Si2      1.0000 0.33398  0.87368  0.10308  Biso   1.000  Si
  Si3      1.0000 0.66551  0.89249  0.11816  Biso   1.000  Si
  Si4      1.0000 0.89982  0.12603  0.66969  Biso   1.000  Si
  Si5      1.0000 0.11917  0.66689  0.89063  Biso   1.000  Si
  Si6      1.0000 0.89732  0.66632  0.12092  Biso   1.000  Si
  Si7      1.0000 0.12220  0.89393  0.66411  Biso   1.000  Si
  Si8      1.0000 0.67049  0.11798  0.89414  Biso   1.000  Si
  Si9      1.0000 0.33499  0.10419  0.88280  Biso   1.000  Si
  Si10     1.0000 0.11175  0.86695  0.33151  Biso   1.000  Si
  Si11     1.0000 0.88102  0.33730  0.10503  Biso   1.000  Si
  Al1      1.0000 0.87635  0.09508  0.32740  Biso   1.000  Al
  Fe1      1.0000 0.97012  0.36475  0.45290  Biso   1.000  Fe
  O25      1.0000 0.10176  0.50017  0.47541  Biso   1.000  O
  H1       1.0000 0.23721  0.51883  0.49804  Biso   1.000  H
  C1       1.0000 0.37424  0.52235  0.49839  Biso   1.000  C
  H2       1.0000 0.40540  0.62977  0.46800  Biso   1.000  H
  H3       1.0000 0.38275  0.43661  0.41289  Biso   1.000  H
  O26      1.0000 0.44300  0.50402  0.63034  Biso   1.000  O
  H4       1.0000 0.43367  0.40490  0.65260  Biso   1.000  H
