data_image0
_cell_length_a       9.33403
_cell_length_b       9.33413
_cell_length_c       9.33383
_cell_angle_alpha    94.5421
_cell_angle_beta     94.5397
_cell_angle_gamma    94.5446

_symmetry_space_group_name_H-M    "P 1"
_symmetry_int_tables_number       1

loop_
  _symmetry_equiv_pos_as_xyz
  'x, y, z'

loop_
  _atom_site_label
  _atom_site_occupancy
  _atom_site_fract_x
  _atom_site_fract_y
  _atom_site_fract_z
  _atom_site_thermal_displace_type
  _atom_site_B_iso_or_equiv
  _atom_site_type_symbol
  O1       1.0000 0.72181  0.40042  0.96379  Biso   1.000  O
  O2       1.0000 0.49239  0.16181  0.38372  Biso   1.000  O
  O3       1.0000 0.38265  0.42809  0.33200  Biso   1.000  O
  O4       1.0000 0.81587  0.18857  0.09937  Biso   1.000  O
  O5       1.0000 0.73707  0.05118  0.32034  Biso   1.000  O
  O6       1.0000 0.50959  0.49547  0.10377  Biso   1.000  O
  O7       1.0000 0.23189  0.91492  0.17258  Biso   1.000  O
  O8       1.0000 0.44976  0.14557  0.75083  Biso   1.000  O
  O9       1.0000 0.21688  0.27242  0.81229  Biso   1.000  O
  O10      1.0000 0.43616  0.81841  0.01733  Biso   1.000  O
  O11      1.0000 0.58209  0.87940  0.79325  Biso   1.000  O
  O12      1.0000 0.13754  0.12495  0.02939  Biso   1.000  O
  O13      1.0000 0.71359  0.91355  0.05908  Biso   1.000  O
  O14      1.0000 0.46961  0.43389  0.81749  Biso   1.000  O
  O15      1.0000 0.18466  0.16265  0.31818  Biso   1.000  O
  O16      1.0000 0.23127  0.40193  0.07613  Biso   1.000  O
  O17      1.0000 0.49386  0.88052  0.29965  Biso   1.000  O
  O18      1.0000 0.75627  0.15254  0.81148  Biso   1.000  O
  O19      1.0000 0.61731  0.97947  0.55210  Biso   1.000  O
  O20      1.0000 0.98068  0.32887  0.92946  Biso   1.000  O
  O21      1.0000 0.31177  0.65876  0.20500  Biso   1.000  O
  O22      1.0000 0.34410  0.33611  0.57711  Biso   1.000  O
  O23      1.0000 0.96890  0.97977  0.19642  Biso   1.000  O
  O24      1.0000 0.64322  0.65653  0.92670  Biso   1.000  O
  Si1      1.0000 0.58552  0.49324  0.95348  Biso   1.000  Si
  Si2      1.0000 0.80895  0.03451  0.16849  Biso   1.000  Si
  Si3      1.0000 0.13275  0.04980  0.18195  Biso   1.000  Si
  Si4      1.0000 0.36918  0.28925  0.74176  Biso   1.000  Si
  Si5      1.0000 0.59273  0.81826  0.95201  Biso   1.000  Si
  Si6      1.0000 0.36834  0.82088  0.17380  Biso   1.000  Si
  Al1      1.0000 0.60216  0.05626  0.72985  Biso   1.000  Al
  Si7      1.0000 0.14159  0.28099  0.96266  Biso   1.000  Si
  Si8      1.0000 0.81706  0.26329  0.94609  Biso   1.000  Si
  Si9      1.0000 0.58235  0.02383  0.38767  Biso   1.000  Si
  Si10     1.0000 0.35747  0.49534  0.17903  Biso   1.000  Si
  Al2      1.0000 0.34081  0.25671  0.39636  Biso   1.000  Al
  Fe1      1.0000 0.49396  0.50636  0.54383  Biso   1.000  Fe
  O25      1.0000 0.68052  0.59295  0.52531  Biso   1.000  O
  Fe2      1.0000 0.62663  0.76399  0.60818  Biso   1.000  Fe
  C1       1.0000 0.85197  0.56210  0.31879  Biso   1.000  C
  H1       1.0000 0.75474  0.58190  0.43407  Biso   1.000  H
  H2       1.0000 0.80766  0.62612  0.23580  Biso   1.000  H
  H3       1.0000 0.83364  0.44527  0.29829  Biso   1.000  H
  O26      1.0000 0.99300  0.60270  0.37031  Biso   1.000  O
  H4       1.0000 0.01908  0.70173  0.35141  Biso   1.000  H
