data_image0
_cell_length_a       9.33403
_cell_length_b       9.33413
_cell_length_c       9.33383
_cell_angle_alpha    94.5421
_cell_angle_beta     94.5397
_cell_angle_gamma    94.5446

_symmetry_space_group_name_H-M    "P 1"
_symmetry_int_tables_number       1

loop_
  _symmetry_equiv_pos_as_xyz
  'x, y, z'

loop_
  _atom_site_label
  _atom_site_occupancy
  _atom_site_fract_x
  _atom_site_fract_y
  _atom_site_fract_z
  _atom_site_thermal_displace_type
  _atom_site_B_iso_or_equiv
  _atom_site_type_symbol
  O1       1.0000 0.25928  0.25398  0.89110  Biso   1.000  O
  O2       1.0000 0.03523  0.01217  0.30948  Biso   1.000  O
  O3       1.0000 0.89872  0.26782  0.25439  Biso   1.000  O
  O4       1.0000 0.33042  0.03314  0.03501  Biso   1.000  O
  O5       1.0000 0.26235  0.87096  0.25084  Biso   1.000  O
  O6       1.0000 0.03504  0.33127  0.03080  Biso   1.000  O
  O7       1.0000 0.75525  0.75733  0.11134  Biso   1.000  O
  O8       1.0000 0.97603  0.98118  0.65796  Biso   1.000  O
  O9       1.0000 0.75143  0.11289  0.74222  Biso   1.000  O
  O10      1.0000 0.97584  0.67083  0.97521  Biso   1.000  O
  O11      1.0000 0.08596  0.75327  0.74572  Biso   1.000  O
  O12      1.0000 0.68400  0.96939  0.96430  Biso   1.000  O
  O13      1.0000 0.25306  0.75784  0.98116  Biso   1.000  O
  O14      1.0000 0.00630  0.25736  0.75724  Biso   1.000  O
  O15      1.0000 0.72098  0.00878  0.25118  Biso   1.000  O
  O16      1.0000 0.75131  0.25133  0.99952  Biso   1.000  O
  O17      1.0000 0.00472  0.73229  0.25813  Biso   1.000  O
  O18      1.0000 0.25454  0.99395  0.75318  Biso   1.000  O
  O19      1.0000 0.15907  0.85006  0.50140  Biso   1.000  O
  O20      1.0000 0.50309  0.14363  0.85124  Biso   1.000  O
  O21      1.0000 0.84387  0.50109  0.13629  Biso   1.000  O
  O22      1.0000 0.87433  0.17898  0.50469  Biso   1.000  O
  O23      1.0000 0.49948  0.83930  0.12652  Biso   1.000  O
  O24      1.0000 0.15566  0.50401  0.85302  Biso   1.000  O
  Si1      1.0000 0.11611  0.33987  0.88415  Biso   1.000  Si
  Si2      1.0000 0.33428  0.87518  0.09937  Biso   1.000  Si
  Si3      1.0000 0.66690  0.89610  0.11652  Biso   1.000  Si
  Si4      1.0000 0.90096  0.13008  0.66867  Biso   1.000  Si
  Si5      1.0000 0.11618  0.66908  0.88776  Biso   1.000  Si
  Si6      1.0000 0.89658  0.66744  0.12164  Biso   1.000  Si
  Si7      1.0000 0.12072  0.89509  0.66363  Biso   1.000  Si
  Si8      1.0000 0.67208  0.12027  0.89069  Biso   1.000  Si
  Si9      1.0000 0.33603  0.10462  0.88234  Biso   1.000  Si
  Si10     1.0000 0.11361  0.86787  0.33110  Biso   1.000  Si
  Si11     1.0000 0.88277  0.33922  0.10183  Biso   1.000  Si
  Al1      1.0000 0.88047  0.09726  0.32487  Biso   1.000  Al
  Ni1      1.0000 0.95825  0.36902  0.45097  Biso   1.000  Ni
  O25      1.0000 0.09385  0.49613  0.50682  Biso   1.000  O
  H1       1.0000 0.31257  0.49257  0.47948  Biso   1.000  H
  C1       1.0000 0.42474  0.51699  0.49869  Biso   1.000  C
  H2       1.0000 0.44506  0.62815  0.47355  Biso   1.000  H
  H3       1.0000 0.46375  0.44333  0.41483  Biso   1.000  H
  O26      1.0000 0.43989  0.49611  0.65015  Biso   1.000  O
  H4       1.0000 0.44764  0.39873  0.66297  Biso   1.000  H
