data_image0
_cell_length_a       9.33403
_cell_length_b       9.33413
_cell_length_c       9.33383
_cell_angle_alpha    94.5421
_cell_angle_beta     94.5397
_cell_angle_gamma    94.5446

_symmetry_space_group_name_H-M    "P 1"
_symmetry_int_tables_number       1

loop_
  _symmetry_equiv_pos_as_xyz
  'x, y, z'

loop_
  _atom_site_label
  _atom_site_occupancy
  _atom_site_fract_x
  _atom_site_fract_y
  _atom_site_fract_z
  _atom_site_thermal_displace_type
  _atom_site_B_iso_or_equiv
  _atom_site_type_symbol
  O1       1.0000 0.73566  0.39968  0.96239  Biso   1.000  O
  O2       1.0000 0.50171  0.15596  0.38020  Biso   1.000  O
  O3       1.0000 0.38722  0.42489  0.33170  Biso   1.000  O
  O4       1.0000 0.82579  0.18757  0.09926  Biso   1.000  O
  O5       1.0000 0.74650  0.04645  0.31819  Biso   1.000  O
  O6       1.0000 0.52552  0.49127  0.10893  Biso   1.000  O
  O7       1.0000 0.24224  0.91143  0.17137  Biso   1.000  O
  O8       1.0000 0.46211  0.14335  0.74556  Biso   1.000  O
  O9       1.0000 0.22681  0.26597  0.80701  Biso   1.000  O
  O10      1.0000 0.44557  0.81639  0.01438  Biso   1.000  O
  O11      1.0000 0.59166  0.87665  0.79013  Biso   1.000  O
  O12      1.0000 0.15003  0.12003  0.02686  Biso   1.000  O
  O13      1.0000 0.72209  0.91337  0.05518  Biso   1.000  O
  O14      1.0000 0.47768  0.42864  0.82485  Biso   1.000  O
  O15      1.0000 0.19420  0.15923  0.31607  Biso   1.000  O
  O16      1.0000 0.24721  0.39528  0.07153  Biso   1.000  O
  O17      1.0000 0.50350  0.87414  0.29762  Biso   1.000  O
  O18      1.0000 0.76825  0.15035  0.81086  Biso   1.000  O
  O19      1.0000 0.62550  0.97444  0.55011  Biso   1.000  O
  O20      1.0000 0.99349  0.32499  0.92874  Biso   1.000  O
  O21      1.0000 0.32188  0.65375  0.20002  Biso   1.000  O
  O22      1.0000 0.35651  0.33518  0.57535  Biso   1.000  O
  O23      1.0000 0.97816  0.97761  0.19239  Biso   1.000  O
  O24      1.0000 0.65222  0.65373  0.92766  Biso   1.000  O
  Si1      1.0000 0.59763  0.49022  0.95564  Biso   1.000  Si
  Si2      1.0000 0.81852  0.03213  0.16608  Biso   1.000  Si
  Si3      1.0000 0.14244  0.04561  0.17986  Biso   1.000  Si
  Si4      1.0000 0.38154  0.28736  0.74079  Biso   1.000  Si
  Si5      1.0000 0.60243  0.81539  0.94905  Biso   1.000  Si
  Si6      1.0000 0.37775  0.81689  0.17068  Biso   1.000  Si
  Al1      1.0000 0.61488  0.05374  0.72852  Biso   1.000  Al
  Si7      1.0000 0.15413  0.27522  0.95897  Biso   1.000  Si
  Si8      1.0000 0.82917  0.26131  0.94559  Biso   1.000  Si
  Si9      1.0000 0.59176  0.01801  0.38458  Biso   1.000  Si
  Si10     1.0000 0.36961  0.49126  0.17617  Biso   1.000  Si
  Al2      1.0000 0.35090  0.25074  0.39561  Biso   1.000  Al
  Ni1      1.0000 0.48472  0.50571  0.52689  Biso   1.000  Ni
  O25      1.0000 0.67020  0.59053  0.55248  Biso   1.000  O
  Ni2      1.0000 0.61394  0.76809  0.60068  Biso   1.000  Ni
  C1       1.0000 0.84495  0.56290  0.35559  Biso   1.000  C
  H1       1.0000 0.74967  0.57543  0.46323  Biso   1.000  H
  H2       1.0000 0.81766  0.64685  0.28641  Biso   1.000  H
  H3       1.0000 0.81712  0.45255  0.30985  Biso   1.000  H
  H4       1.0000 0.94744  0.58326  0.42077  Biso   1.000  H
