data_image0
_cell_length_a       9.33403
_cell_length_b       9.33413
_cell_length_c       9.33383
_cell_angle_alpha    94.5421
_cell_angle_beta     94.5397
_cell_angle_gamma    94.5446

_symmetry_space_group_name_H-M    "P 1"
_symmetry_int_tables_number       1

loop_
  _symmetry_equiv_pos_as_xyz
  'x, y, z'

loop_
  _atom_site_label
  _atom_site_occupancy
  _atom_site_fract_x
  _atom_site_fract_y
  _atom_site_fract_z
  _atom_site_thermal_displace_type
  _atom_site_B_iso_or_equiv
  _atom_site_type_symbol
  O1       1.0000 0.72611  0.40132  0.97006  Biso   1.000  O
  O2       1.0000 0.49115  0.15849  0.37927  Biso   1.000  O
  O3       1.0000 0.37218  0.42779  0.33077  Biso   1.000  O
  O4       1.0000 0.81968  0.18502  0.09773  Biso   1.000  O
  O5       1.0000 0.73702  0.05002  0.31999  Biso   1.000  O
  O6       1.0000 0.51609  0.49699  0.11260  Biso   1.000  O
  O7       1.0000 0.23337  0.91528  0.17020  Biso   1.000  O
  O8       1.0000 0.45059  0.14344  0.74701  Biso   1.000  O
  O9       1.0000 0.21565  0.26741  0.80474  Biso   1.000  O
  O10      1.0000 0.43780  0.81984  0.01418  Biso   1.000  O
  O11      1.0000 0.59033  0.88167  0.79464  Biso   1.000  O
  O12      1.0000 0.13761  0.12362  0.02784  Biso   1.000  O
  O13      1.0000 0.71651  0.90941  0.06117  Biso   1.000  O
  O14      1.0000 0.46814  0.42754  0.82999  Biso   1.000  O
  O15      1.0000 0.18431  0.16201  0.31776  Biso   1.000  O
  O16      1.0000 0.23885  0.39798  0.06830  Biso   1.000  O
  O17      1.0000 0.49380  0.87721  0.29691  Biso   1.000  O
  O18      1.0000 0.75712  0.15697  0.80931  Biso   1.000  O
  O19      1.0000 0.61451  0.97665  0.55059  Biso   1.000  O
  O20      1.0000 0.98343  0.32881  0.92896  Biso   1.000  O
  O21      1.0000 0.30982  0.65743  0.19772  Biso   1.000  O
  O22      1.0000 0.35393  0.33950  0.57657  Biso   1.000  O
  O23      1.0000 0.97057  0.97718  0.19813  Biso   1.000  O
  O24      1.0000 0.64249  0.65410  0.92681  Biso   1.000  O
  Si1      1.0000 0.58769  0.49149  0.95903  Biso   1.000  Si
  Si2      1.0000 0.81048  0.03228  0.16901  Biso   1.000  Si
  Si3      1.0000 0.13356  0.04918  0.18094  Biso   1.000  Si
  Si4      1.0000 0.37246  0.28900  0.74139  Biso   1.000  Si
  Si5      1.0000 0.59569  0.81704  0.95149  Biso   1.000  Si
  Si6      1.0000 0.36865  0.82012  0.16991  Biso   1.000  Si
  Al1      1.0000 0.60483  0.05668  0.72850  Biso   1.000  Al
  Si7      1.0000 0.14390  0.27803  0.95743  Biso   1.000  Si
  Si8      1.0000 0.81973  0.26360  0.94647  Biso   1.000  Si
  Si9      1.0000 0.58126  0.02049  0.38545  Biso   1.000  Si
  Si10     1.0000 0.35793  0.49489  0.17595  Biso   1.000  Si
  Al2      1.0000 0.34112  0.25447  0.39676  Biso   1.000  Al
  Ni1      1.0000 0.48336  0.50909  0.51965  Biso   1.000  Ni
  O25      1.0000 0.66085  0.60482  0.51549  Biso   1.000  O
  Ni2      1.0000 0.61701  0.76864  0.60918  Biso   1.000  Ni
  C1       1.0000 0.85451  0.56394  0.33712  Biso   1.000  C
  H1       1.0000 0.75397  0.58521  0.43493  Biso   1.000  H
  H2       1.0000 0.79682  0.58991  0.23749  Biso   1.000  H
  H3       1.0000 0.86963  0.45008  0.34537  Biso   1.000  H
  O26      1.0000 0.98084  0.64888  0.37861  Biso   1.000  O
  H4       1.0000 0.97964  0.74072  0.33623  Biso   1.000  H
