data_image0
_cell_length_a       9.33403
_cell_length_b       9.33413
_cell_length_c       9.33383
_cell_angle_alpha    94.5421
_cell_angle_beta     94.5397
_cell_angle_gamma    94.5446

_symmetry_space_group_name_H-M    "P 1"
_symmetry_int_tables_number       1

loop_
  _symmetry_equiv_pos_as_xyz
  'x, y, z'

loop_
  _atom_site_label
  _atom_site_occupancy
  _atom_site_fract_x
  _atom_site_fract_y
  _atom_site_fract_z
  _atom_site_thermal_displace_type
  _atom_site_B_iso_or_equiv
  _atom_site_type_symbol
  O1       1.0000 0.73697  0.40193  0.96001  Biso   1.000  O
  O2       1.0000 0.50373  0.15334  0.38322  Biso   1.000  O
  O3       1.0000 0.38783  0.41588  0.32362  Biso   1.000  O
  O4       1.0000 0.81345  0.18505  0.09723  Biso   1.000  O
  O5       1.0000 0.74472  0.04070  0.31862  Biso   1.000  O
  O6       1.0000 0.52203  0.48844  0.10039  Biso   1.000  O
  O7       1.0000 0.24070  0.90770  0.17281  Biso   1.000  O
  O8       1.0000 0.46381  0.14881  0.74546  Biso   1.000  O
  O9       1.0000 0.23015  0.27200  0.80829  Biso   1.000  O
  O10      1.0000 0.44706  0.81395  0.02333  Biso   1.000  O
  O11      1.0000 0.58942  0.88080  0.79898  Biso   1.000  O
  O12      1.0000 0.16093  0.12306  0.02967  Biso   1.000  O
  O13      1.0000 0.72165  0.90860  0.06115  Biso   1.000  O
  O14      1.0000 0.48086  0.43237  0.81725  Biso   1.000  O
  O15      1.0000 0.19702  0.15530  0.31535  Biso   1.000  O
  O16      1.0000 0.24503  0.40157  0.06675  Biso   1.000  O
  O17      1.0000 0.49941  0.87510  0.30513  Biso   1.000  O
  O18      1.0000 0.76261  0.15227  0.81166  Biso   1.000  O
  O19      1.0000 0.62557  0.97352  0.55497  Biso   1.000  O
  O20      1.0000 0.99259  0.31436  0.93325  Biso   1.000  O
  O21      1.0000 0.32847  0.65193  0.20766  Biso   1.000  O
  O22      1.0000 0.35884  0.33472  0.57124  Biso   1.000  O
  O23      1.0000 0.97781  0.98664  0.18695  Biso   1.000  O
  O24      1.0000 0.65038  0.65514  0.92787  Biso   1.000  O
  Si1      1.0000 0.59821  0.49095  0.95102  Biso   1.000  Si
  Si2      1.0000 0.81519  0.03203  0.16653  Biso   1.000  Si
  Si3      1.0000 0.14464  0.04477  0.17837  Biso   1.000  Si
  Si4      1.0000 0.38297  0.29080  0.73885  Biso   1.000  Si
  Si5      1.0000 0.60089  0.81587  0.95448  Biso   1.000  Si
  Si6      1.0000 0.37806  0.81567  0.17737  Biso   1.000  Si
  Al1      1.0000 0.61171  0.05326  0.73066  Biso   1.000  Al
  Si7      1.0000 0.15626  0.27553  0.95936  Biso   1.000  Si
  Si8      1.0000 0.82543  0.25989  0.94637  Biso   1.000  Si
  Si9      1.0000 0.59271  0.01518  0.39009  Biso   1.000  Si
  Si10     1.0000 0.37025  0.48955  0.17235  Biso   1.000  Si
  Al2      1.0000 0.35303  0.24500  0.39276  Biso   1.000  Al
  Ni1      1.0000 0.47496  0.50227  0.51633  Biso   1.000  Ni
  O25      1.0000 0.65063  0.59612  0.52685  Biso   1.000  O
  Ni2      1.0000 0.62677  0.76950  0.61803  Biso   1.000  Ni
  C1       1.0000 0.84803  0.56530  0.35837  Biso   1.000  C
  H1       1.0000 0.73892  0.57659  0.44326  Biso   1.000  H
  H2       1.0000 0.83262  0.64582  0.28173  Biso   1.000  H
  H3       1.0000 0.83616  0.45401  0.31220  Biso   1.000  H
  H4       1.0000 0.93949  0.59226  0.43796  Biso   1.000  H
