data_image0
_cell_length_a       9.33403
_cell_length_b       9.33413
_cell_length_c       9.33383
_cell_angle_alpha    94.5421
_cell_angle_beta     94.5397
_cell_angle_gamma    94.5446

_symmetry_space_group_name_H-M    "P 1"
_symmetry_int_tables_number       1

loop_
  _symmetry_equiv_pos_as_xyz
  'x, y, z'

loop_
  _atom_site_label
  _atom_site_occupancy
  _atom_site_fract_x
  _atom_site_fract_y
  _atom_site_fract_z
  _atom_site_thermal_displace_type
  _atom_site_B_iso_or_equiv
  _atom_site_type_symbol
  O1       1.0000 0.72945  0.40203  0.96393  Biso   1.000  O
  O2       1.0000 0.49492  0.15868  0.37885  Biso   1.000  O
  O3       1.0000 0.38103  0.42845  0.33055  Biso   1.000  O
  O4       1.0000 0.82204  0.18876  0.09758  Biso   1.000  O
  O5       1.0000 0.74047  0.04993  0.31751  Biso   1.000  O
  O6       1.0000 0.51994  0.49665  0.10931  Biso   1.000  O
  O7       1.0000 0.23629  0.91455  0.17115  Biso   1.000  O
  O8       1.0000 0.45686  0.14637  0.74385  Biso   1.000  O
  O9       1.0000 0.22096  0.26708  0.80586  Biso   1.000  O
  O10      1.0000 0.44017  0.81974  0.01352  Biso   1.000  O
  O11      1.0000 0.58742  0.88058  0.79057  Biso   1.000  O
  O12      1.0000 0.14188  0.12313  0.02683  Biso   1.000  O
  O13      1.0000 0.71784  0.91417  0.05587  Biso   1.000  O
  O14      1.0000 0.47099  0.43056  0.82631  Biso   1.000  O
  O15      1.0000 0.18850  0.16262  0.31614  Biso   1.000  O
  O16      1.0000 0.24243  0.39762  0.06974  Biso   1.000  O
  O17      1.0000 0.49802  0.87704  0.29614  Biso   1.000  O
  O18      1.0000 0.76264  0.15416  0.80950  Biso   1.000  O
  O19      1.0000 0.61984  0.97708  0.54900  Biso   1.000  O
  O20      1.0000 0.98776  0.32899  0.92808  Biso   1.000  O
  O21      1.0000 0.31456  0.65710  0.19837  Biso   1.000  O
  O22      1.0000 0.35236  0.33984  0.57506  Biso   1.000  O
  O23      1.0000 0.97297  0.97887  0.19531  Biso   1.000  O
  O24      1.0000 0.64644  0.65616  0.92676  Biso   1.000  O
  Si1      1.0000 0.59139  0.49286  0.95544  Biso   1.000  Si
  Si2      1.0000 0.81325  0.03438  0.16595  Biso   1.000  Si
  Si3      1.0000 0.13686  0.04917  0.18005  Biso   1.000  Si
  Si4      1.0000 0.37594  0.29026  0.73970  Biso   1.000  Si
  Si5      1.0000 0.59724  0.81814  0.94863  Biso   1.000  Si
  Si6      1.0000 0.37203  0.81994  0.16957  Biso   1.000  Si
  Al1      1.0000 0.60959  0.05676  0.72700  Biso   1.000  Al
  Si7      1.0000 0.14807  0.27807  0.95765  Biso   1.000  Si
  Si8      1.0000 0.82370  0.26434  0.94455  Biso   1.000  Si
  Si9      1.0000 0.58541  0.02107  0.38404  Biso   1.000  Si
  Si10     1.0000 0.36312  0.49469  0.17534  Biso   1.000  Si
  Al2      1.0000 0.34511  0.25520  0.39578  Biso   1.000  Al
  Ni1      1.0000 0.48113  0.51214  0.52406  Biso   1.000  Ni
  O25      1.0000 0.66635  0.59582  0.54875  Biso   1.000  O
  Ni2      1.0000 0.60755  0.76895  0.60229  Biso   1.000  Ni
  C1       1.0000 0.82611  0.56784  0.33724  Biso   1.000  C
  H1       1.0000 0.74644  0.58403  0.44702  Biso   1.000  H
  H2       1.0000 0.77153  0.62495  0.25422  Biso   1.000  H
  H3       1.0000 0.81714  0.45038  0.31861  Biso   1.000  H
  O26      1.0000 0.96656  0.61995  0.37871  Biso   1.000  O
  H4       1.0000 0.98260  0.71996  0.35745  Biso   1.000  H
