data_image0
_cell_length_a       9.33403
_cell_length_b       9.33413
_cell_length_c       9.33383
_cell_angle_alpha    94.5421
_cell_angle_beta     94.5397
_cell_angle_gamma    94.5446

_symmetry_space_group_name_H-M    "P 1"
_symmetry_int_tables_number       1

loop_
  _symmetry_equiv_pos_as_xyz
  'x, y, z'

loop_
  _atom_site_label
  _atom_site_occupancy
  _atom_site_fract_x
  _atom_site_fract_y
  _atom_site_fract_z
  _atom_site_thermal_displace_type
  _atom_site_B_iso_or_equiv
  _atom_site_type_symbol
  O1       1.0000 0.25399  0.25402  0.90149  Biso   1.000  O
  O2       1.0000 0.02964  0.01280  0.31589  Biso   1.000  O
  O3       1.0000 0.90206  0.26926  0.25667  Biso   1.000  O
  O4       1.0000 0.32208  0.02762  0.03032  Biso   1.000  O
  O5       1.0000 0.25856  0.88132  0.25249  Biso   1.000  O
  O6       1.0000 0.03035  0.34081  0.02988  Biso   1.000  O
  O7       1.0000 0.75366  0.75361  0.10543  Biso   1.000  O
  O8       1.0000 0.97339  0.98212  0.66251  Biso   1.000  O
  O9       1.0000 0.74981  0.11540  0.74571  Biso   1.000  O
  O10      1.0000 0.97137  0.66719  0.97087  Biso   1.000  O
  O11      1.0000 0.09542  0.75500  0.74877  Biso   1.000  O
  O12      1.0000 0.68211  0.97256  0.96732  Biso   1.000  O
  O13      1.0000 0.25058  0.74703  0.99463  Biso   1.000  O
  O14      1.0000 0.00425  0.26113  0.75305  Biso   1.000  O
  O15      1.0000 0.72233  0.00289  0.25284  Biso   1.000  O
  O16      1.0000 0.75001  0.25337  0.00148  Biso   1.000  O
  O17      1.0000 0.00647  0.73271  0.25529  Biso   1.000  O
  O18      1.0000 0.25260  0.00318  0.74786  Biso   1.000  O
  O19      1.0000 0.15310  0.85147  0.50104  Biso   1.000  O
  O20      1.0000 0.50089  0.14712  0.85767  Biso   1.000  O
  O21      1.0000 0.84264  0.50311  0.14592  Biso   1.000  O
  O22      1.0000 0.87196  0.18290  0.50570  Biso   1.000  O
  O23      1.0000 0.49801  0.84258  0.12743  Biso   1.000  O
  O24      1.0000 0.15395  0.50402  0.84878  Biso   1.000  O
  Si1      1.0000 0.11233  0.34068  0.88368  Biso   1.000  Si
  Si2      1.0000 0.33237  0.87569  0.10275  Biso   1.000  Si
  Si3      1.0000 0.66501  0.89479  0.11625  Biso   1.000  Si
  Si4      1.0000 0.89847  0.13220  0.66879  Biso   1.000  Si
  Si5      1.0000 0.11811  0.66840  0.88988  Biso   1.000  Si
  Si6      1.0000 0.89522  0.66787  0.12061  Biso   1.000  Si
  Si7      1.0000 0.11997  0.89767  0.66423  Biso   1.000  Si
  Si8      1.0000 0.66933  0.12178  0.89346  Biso   1.000  Si
  Si9      1.0000 0.33295  0.10667  0.88311  Biso   1.000  Si
  Si10     1.0000 0.11061  0.87073  0.33183  Biso   1.000  Si
  Si11     1.0000 0.88016  0.34093  0.10444  Biso   1.000  Si
  Al1      1.0000 0.87633  0.09827  0.32707  Biso   1.000  Al
  Ni1      1.0000 0.96080  0.37054  0.44872  Biso   1.000  Ni
  O25      1.0000 0.09383  0.50294  0.50697  Biso   1.000  O
  H1       1.0000 0.23364  0.50604  0.50336  Biso   1.000  H
  C1       1.0000 0.36491  0.50877  0.49965  Biso   1.000  C
  H2       1.0000 0.40124  0.62220  0.49537  Biso   1.000  H
  H3       1.0000 0.40473  0.46597  0.59874  Biso   1.000  H
  H4       1.0000 0.38056  0.44051  0.40321  Biso   1.000  H
