data_image0
_cell_length_a       9.33403
_cell_length_b       9.33413
_cell_length_c       9.33383
_cell_angle_alpha    94.5421
_cell_angle_beta     94.5397
_cell_angle_gamma    94.5446

_symmetry_space_group_name_H-M    "P 1"
_symmetry_int_tables_number       1

loop_
  _symmetry_equiv_pos_as_xyz
  'x, y, z'

loop_
  _atom_site_label
  _atom_site_occupancy
  _atom_site_fract_x
  _atom_site_fract_y
  _atom_site_fract_z
  _atom_site_thermal_displace_type
  _atom_site_B_iso_or_equiv
  _atom_site_type_symbol
  O1       1.0000 0.73373  0.39973  0.96493  Biso   1.000  O
  O2       1.0000 0.49988  0.15455  0.38433  Biso   1.000  O
  O3       1.0000 0.38438  0.42268  0.33081  Biso   1.000  O
  O4       1.0000 0.82113  0.18459  0.09843  Biso   1.000  O
  O5       1.0000 0.74524  0.04804  0.32232  Biso   1.000  O
  O6       1.0000 0.52345  0.49457  0.10999  Biso   1.000  O
  O7       1.0000 0.24026  0.91137  0.17200  Biso   1.000  O
  O8       1.0000 0.45965  0.14353  0.74766  Biso   1.000  O
  O9       1.0000 0.22402  0.26710  0.80658  Biso   1.000  O
  O10      1.0000 0.44282  0.81315  0.01647  Biso   1.000  O
  O11      1.0000 0.59331  0.88052  0.79730  Biso   1.000  O
  O12      1.0000 0.14955  0.12092  0.02813  Biso   1.000  O
  O13      1.0000 0.71977  0.90908  0.06350  Biso   1.000  O
  O14      1.0000 0.47619  0.42836  0.82678  Biso   1.000  O
  O15      1.0000 0.19241  0.15888  0.31758  Biso   1.000  O
  O16      1.0000 0.24572  0.39687  0.07035  Biso   1.000  O
  O17      1.0000 0.50171  0.87427  0.29850  Biso   1.000  O
  O18      1.0000 0.76647  0.15270  0.80916  Biso   1.000  O
  O19      1.0000 0.62240  0.97107  0.55260  Biso   1.000  O
  O20      1.0000 0.99112  0.32461  0.93118  Biso   1.000  O
  O21      1.0000 0.31878  0.65371  0.20432  Biso   1.000  O
  O22      1.0000 0.35769  0.33618  0.57632  Biso   1.000  O
  O23      1.0000 0.97673  0.97849  0.19380  Biso   1.000  O
  O24      1.0000 0.65067  0.65358  0.92584  Biso   1.000  O
  Si1      1.0000 0.59600  0.49068  0.95711  Biso   1.000  Si
  Si2      1.0000 0.81637  0.03154  0.16983  Biso   1.000  Si
  Si3      1.0000 0.14103  0.04590  0.18084  Biso   1.000  Si
  Si4      1.0000 0.37986  0.28794  0.74196  Biso   1.000  Si
  Si5      1.0000 0.60086  0.81505  0.95398  Biso   1.000  Si
  Si6      1.0000 0.37528  0.81618  0.17315  Biso   1.000  Si
  Al1      1.0000 0.61263  0.05463  0.72958  Biso   1.000  Al
  Si7      1.0000 0.15229  0.27576  0.95940  Biso   1.000  Si
  Si8      1.0000 0.82655  0.26088  0.94632  Biso   1.000  Si
  Si9      1.0000 0.59004  0.01646  0.38763  Biso   1.000  Si
  Si10     1.0000 0.36718  0.49178  0.17697  Biso   1.000  Si
  Al2      1.0000 0.34926  0.24972  0.39695  Biso   1.000  Al
  Ni1      1.0000 0.48765  0.50277  0.52354  Biso   1.000  Ni
  O25      1.0000 0.66593  0.59904  0.52527  Biso   1.000  O
  Ni2      1.0000 0.62179  0.76578  0.61542  Biso   1.000  Ni
  C1       1.0000 0.85943  0.56191  0.34646  Biso   1.000  C
  H1       1.0000 0.75086  0.58044  0.44609  Biso   1.000  H
  H2       1.0000 0.83656  0.64364  0.27295  Biso   1.000  H
  H3       1.0000 0.83353  0.45039  0.30364  Biso   1.000  H
  H4       1.0000 0.95776  0.58455  0.41779  Biso   1.000  H
