data_image0
_cell_length_a       9.46362
_cell_length_b       9.46352
_cell_length_c       9.4638
_cell_angle_alpha    94.5227
_cell_angle_beta     94.5193
_cell_angle_gamma    94.5229

_symmetry_space_group_name_H-M    "P 1"
_symmetry_int_tables_number       1

loop_
  _symmetry_equiv_pos_as_xyz
  'x, y, z'

loop_
  _atom_site_label
  _atom_site_occupancy
  _atom_site_fract_x
  _atom_site_fract_y
  _atom_site_fract_z
  _atom_site_thermal_displace_type
  _atom_site_B_iso_or_equiv
  _atom_site_type_symbol
  P1       1.0000 0.11382  0.33093  0.87743  Biso   1.000  P
  Si1      1.0000 0.87482  0.10892  0.32623  Biso   1.000  Si
  P2       1.0000 0.33284  0.86850  0.10083  Biso   1.000  P
  Al1      1.0000 0.66389  0.90075  0.11946  Biso   1.000  Al
  Al2      1.0000 0.89914  0.11880  0.66307  Biso   1.000  Al
  Al3      1.0000 0.12122  0.66230  0.88782  Biso   1.000  Al
  P3       1.0000 0.89054  0.66625  0.11067  Biso   1.000  P
  P4       1.0000 0.12245  0.88777  0.65397  Biso   1.000  P
  P5       1.0000 0.66561  0.11645  0.88105  Biso   1.000  P
  Al4      1.0000 0.33320  0.09704  0.86828  Biso   1.000  Al
  Al5      1.0000 0.10203  0.87320  0.32176  Biso   1.000  Al
  Al6      1.0000 0.87666  0.33551  0.09171  Biso   1.000  Al
  O1       1.0000 0.25047  0.25569  0.89433  Biso   1.000  O
  O2       1.0000 0.01363  0.02493  0.30925  Biso   1.000  O
  O3       1.0000 0.89199  0.26788  0.25981  Biso   1.000  O
  O4       1.0000 0.32286  0.00256  0.01980  Biso   1.000  O
  O5       1.0000 0.26086  0.88981  0.23867  Biso   1.000  O
  O6       1.0000 0.04066  0.32997  0.01710  Biso   1.000  O
  O7       1.0000 0.76102  0.75139  0.10316  Biso   1.000  O
  O8       1.0000 0.98177  0.95880  0.66045  Biso   1.000  O
  O9       1.0000 0.73984  0.09965  0.74370  Biso   1.000  O
  O10      1.0000 0.96083  0.67241  0.96922  Biso   1.000  O
  O11      1.0000 0.11342  0.75443  0.73574  Biso   1.000  O
  O12      1.0000 0.67153  0.97921  0.95619  Biso   1.000  O
  O13      1.0000 0.26111  0.73767  0.00827  Biso   1.000  O
  O14      1.0000 0.01305  0.25652  0.75502  Biso   1.000  O
  O15      1.0000 0.73070  0.02098  0.25944  Biso   1.000  O
  O16      1.0000 0.73903  0.24392  0.97799  Biso   1.000  O
  O17      1.0000 0.99739  0.72155  0.23721  Biso   1.000  O
  O18      1.0000 0.24715  0.99296  0.71915  Biso   1.000  O
  O19      1.0000 0.14689  0.84189  0.49993  Biso   1.000  O
  O20      1.0000 0.51100  0.14642  0.84217  Biso   1.000  O
  O21      1.0000 0.83869  0.51167  0.12896  Biso   1.000  O
  O22      1.0000 0.86406  0.17424  0.49219  Biso   1.000  O
  O23      1.0000 0.48747  0.84124  0.13760  Biso   1.000  O
  O24      1.0000 0.15194  0.48457  0.84330  Biso   1.000  O
  Ni1      1.0000 0.86628  0.38447  0.43891  Biso   1.000  Ni
  O25      1.0000 0.81398  0.52435  0.54147  Biso   1.000  O
  C1       1.0000 0.62645  0.55541  0.72080  Biso   1.000  C
  H1       1.0000 0.68719  0.61667  0.81099  Biso   1.000  H
  H2       1.0000 0.59100  0.44584  0.73908  Biso   1.000  H
  H3       1.0000 0.72102  0.54002  0.62913  Biso   1.000  H
  O26      1.0000 0.52032  0.63458  0.66706  Biso   1.000  O
  H4       1.0000 0.45306  0.57455  0.60164  Biso   1.000  H
