data_image0
_cell_length_a       8.92079
_cell_length_b       8.92079
_cell_length_c       18.2838
_cell_angle_alpha    90
_cell_angle_beta     90
_cell_angle_gamma    60

_symmetry_space_group_name_H-M    "P 1"
_symmetry_int_tables_number       1

loop_
  _symmetry_equiv_pos_as_xyz
  'x, y, z'

loop_
  _atom_site_label
  _atom_site_occupancy
  _atom_site_fract_x
  _atom_site_fract_y
  _atom_site_fract_z
  _atom_site_thermal_displace_type
  _atom_site_B_iso_or_equiv
  _atom_site_type_symbol
  Ag1      1.0000 0.99609  0.99952  0.99898  Biso   1.000  Ag
  Ag2      1.0000 0.33752  0.98770  0.00386  Biso   1.000  Ag
  Ag3      1.0000 0.66771  0.99950  0.99921  Biso   1.000  Ag
  Ag4      1.0000 0.98132  0.34270  0.00231  Biso   1.000  Ag
  Ag5      1.0000 0.33752  0.34151  0.00384  Biso   1.000  Ag
  Ag6      1.0000 0.66318  0.33517  0.99881  Biso   1.000  Ag
  O1       1.0000 0.21596  0.22537  0.06726  Biso   1.000  O
  Ag7      1.0000 0.99608  0.67113  0.99898  Biso   1.000  Ag
  Ag8      1.0000 0.33158  0.66749  0.99904  Biso   1.000  Ag
  Ag9      1.0000 0.66325  0.66831  0.99881  Biso   1.000  Ag
  Ag10     1.0000 0.11035  0.11200  0.86769  Biso   1.000  Ag
  Ag11     1.0000 0.44243  0.11213  0.86804  Biso   1.000  Ag
  Ag12     1.0000 0.77624  0.11240  0.86636  Biso   1.000  Ag
  Ag13     1.0000 0.11035  0.44435  0.86768  Biso   1.000  Ag
  Ag14     1.0000 0.44146  0.44375  0.86717  Biso   1.000  Ag
  Ag15     1.0000 0.77822  0.44425  0.86669  Biso   1.000  Ag
  Ag16     1.0000 0.11080  0.77795  0.86633  Biso   1.000  Ag
  Ag17     1.0000 0.44146  0.78150  0.86716  Biso   1.000  Ag
  Ag18     1.0000 0.77624  0.77806  0.86636  Biso   1.000  Ag
  Ag19     1.0000 0.22222  0.22222  0.73442  Biso   1.000  Ag
  Ag20     1.0000 0.55556  0.22222  0.73442  Biso   1.000  Ag
  Ag21     1.0000 0.88889  0.22222  0.73442  Biso   1.000  Ag
  Ag22     1.0000 0.22222  0.55556  0.73442  Biso   1.000  Ag
  Ag23     1.0000 0.55556  0.55556  0.73442  Biso   1.000  Ag
  Ag24     1.0000 0.88889  0.55556  0.73442  Biso   1.000  Ag
  Ag25     1.0000 0.22222  0.88889  0.73442  Biso   1.000  Ag
  Ag26     1.0000 0.55556  0.88889  0.73442  Biso   1.000  Ag
  Ag27     1.0000 0.88889  0.88889  0.73442  Biso   1.000  Ag
  Ag28     1.0000 0.00000  0.00000  0.60163  Biso   1.000  Ag
  Ag29     1.0000 0.33333  0.00000  0.60163  Biso   1.000  Ag
  Ag30     1.0000 0.66667  0.00000  0.60163  Biso   1.000  Ag
  Ag31     1.0000 0.00000  0.33333  0.60163  Biso   1.000  Ag
  Ag32     1.0000 0.33333  0.33333  0.60163  Biso   1.000  Ag
  Ag33     1.0000 0.66667  0.33333  0.60163  Biso   1.000  Ag
  Ag34     1.0000 0.00000  0.66667  0.60163  Biso   1.000  Ag
  Ag35     1.0000 0.33333  0.66667  0.60163  Biso   1.000  Ag
  Ag36     1.0000 0.66667  0.66667  0.60163  Biso   1.000  Ag
