data_image0
_cell_length_a       6.567
_cell_length_b       6.567
_cell_length_c       28.134
_cell_angle_alpha    90
_cell_angle_beta     90
_cell_angle_gamma    90

_symmetry_space_group_name_H-M    "P 1"
_symmetry_int_tables_number       1

loop_
  _symmetry_equiv_pos_as_xyz
  'x, y, z'

loop_
  _atom_site_label
  _atom_site_occupancy
  _atom_site_fract_x
  _atom_site_fract_y
  _atom_site_fract_z
  _atom_site_thermal_displace_type
  _atom_site_B_iso_or_equiv
  _atom_site_type_symbol
  Ir1      1.0000 0.40290  0.62500  0.05835  Biso   1.000  Ir
  O1       1.0000 0.40290  0.87500  0.01302  Biso   1.000  O
  O2       1.0000 0.40290  0.87500  0.10368  Biso   1.000  O
  O3       1.0000 0.70870  0.62500  0.05835  Biso   1.000  O
  O4       1.0000 0.09710  0.62500  0.05835  Biso   1.000  O
  O5       1.0000 0.20870  0.62500  0.17506  Biso   1.000  O
  Ir2      1.0000 0.90290  0.87500  0.05835  Biso   1.000  Ir
  Ir3      1.0000 0.90290  0.62500  0.17506  Biso   1.000  Ir
  O6       1.0000 0.90290  0.87500  0.12973  Biso   1.000  O
  O7       1.0000 0.90290  0.87500  0.22039  Biso   1.000  O
  O8       1.0000 0.59710  0.62500  0.17506  Biso   1.000  O
  Ir4      1.0000 0.40290  0.87500  0.17506  Biso   1.000  Ir
  Ir5      1.0000 0.40290  0.12500  0.05835  Biso   1.000  Ir
  O9       1.0000 0.40290  0.37500  0.01302  Biso   1.000  O
  O10      1.0000 0.40290  0.37500  0.10368  Biso   1.000  O
  O11      1.0000 0.70870  0.12500  0.05835  Biso   1.000  O
  O12      1.0000 0.09710  0.12500  0.05835  Biso   1.000  O
  O13      1.0000 0.20870  0.12500  0.17506  Biso   1.000  O
  Ir6      1.0000 0.90290  0.37500  0.05835  Biso   1.000  Ir
  Ir7      1.0000 0.90290  0.12500  0.17506  Biso   1.000  Ir
  O14      1.0000 0.90290  0.37500  0.12973  Biso   1.000  O
  O15      1.0000 0.90290  0.37500  0.22039  Biso   1.000  O
  O16      1.0000 0.59710  0.12500  0.17506  Biso   1.000  O
  Ir8      1.0000 0.40290  0.37500  0.17506  Biso   1.000  Ir
  Ir9      1.0000 0.40087  0.62469  0.28957  Biso   1.000  Ir
  O17      1.0000 0.40045  0.87496  0.24606  Biso   1.000  O
  O18      1.0000 0.40121  0.87500  0.33290  Biso   1.000  O
  O19      1.0000 0.71005  0.62485  0.29025  Biso   1.000  O
  O20      1.0000 0.09149  0.62486  0.29031  Biso   1.000  O
  O21      1.0000 0.21012  0.62463  0.40201  Biso   1.000  O
  Ir10     1.0000 0.90066  0.87490  0.29066  Biso   1.000  Ir
  Ir11     1.0000 0.90084  0.62457  0.40455  Biso   1.000  Ir
  O22      1.0000 0.89903  0.87442  0.36073  Biso   1.000  O
  O23      1.0000 0.90052  0.87530  0.44574  Biso   1.000  O
  O24      1.0000 0.58953  0.62390  0.40476  Biso   1.000  O
  Ir12     1.0000 0.40051  0.87209  0.40501  Biso   1.000  Ir
  Ir13     1.0000 0.39998  0.12526  0.28957  Biso   1.000  Ir
  O25      1.0000 0.40088  0.37498  0.24609  Biso   1.000  O
  O26      1.0000 0.40161  0.37515  0.33309  Biso   1.000  O
  O27      1.0000 0.70982  0.12486  0.29011  Biso   1.000  O
  O28      1.0000 0.09125  0.12518  0.29030  Biso   1.000  O
  O29      1.0000 0.20803  0.12441  0.40068  Biso   1.000  O
  Ir14     1.0000 0.90059  0.37491  0.29066  Biso   1.000  Ir
  Ir15     1.0000 0.89951  0.12472  0.40446  Biso   1.000  Ir
  O30      1.0000 0.89890  0.37482  0.36075  Biso   1.000  O
  O31      1.0000 0.89975  0.37451  0.44586  Biso   1.000  O
  O32      1.0000 0.58925  0.12210  0.40281  Biso   1.000  O
  Ir16     1.0000 0.39776  0.37195  0.40649  Biso   1.000  Ir
  O33      1.0000 0.38611  0.36914  0.47056  Biso   1.000  O
  O34      1.0000 0.38211  0.88830  0.47179  Biso   1.000  O
  C1       1.0000 0.61115  0.69827  0.52819  Biso   1.000  C
  H1       1.0000 0.71378  0.82453  0.53406  Biso   1.000  H
  H2       1.0000 0.49499  0.67154  0.55479  Biso   1.000  H
  H3       1.0000 0.67509  0.56455  0.51154  Biso   1.000  H
  H4       1.0000 0.48766  0.78596  0.49414  Biso   1.000  H
