data_image0
_cell_length_a       6.567
_cell_length_b       6.567
_cell_length_c       28.134
_cell_angle_alpha    90
_cell_angle_beta     90
_cell_angle_gamma    90

_symmetry_space_group_name_H-M    "P 1"
_symmetry_int_tables_number       1

loop_
  _symmetry_equiv_pos_as_xyz
  'x, y, z'

loop_
  _atom_site_label
  _atom_site_occupancy
  _atom_site_fract_x
  _atom_site_fract_y
  _atom_site_fract_z
  _atom_site_thermal_displace_type
  _atom_site_B_iso_or_equiv
  _atom_site_type_symbol
  Ir1      1.0000 0.40290  0.62500  0.05835  Biso   1.000  Ir
  O1       1.0000 0.40290  0.87500  0.01302  Biso   1.000  O
  O2       1.0000 0.40290  0.87500  0.10368  Biso   1.000  O
  O3       1.0000 0.70870  0.62500  0.05835  Biso   1.000  O
  O4       1.0000 0.09710  0.62500  0.05835  Biso   1.000  O
  O5       1.0000 0.20870  0.62500  0.17506  Biso   1.000  O
  Ir2      1.0000 0.90290  0.87500  0.05835  Biso   1.000  Ir
  Ir3      1.0000 0.90290  0.62500  0.17506  Biso   1.000  Ir
  O6       1.0000 0.90290  0.87500  0.12973  Biso   1.000  O
  O7       1.0000 0.90290  0.87500  0.22039  Biso   1.000  O
  O8       1.0000 0.59710  0.62500  0.17506  Biso   1.000  O
  Ir4      1.0000 0.40290  0.87500  0.17506  Biso   1.000  Ir
  Ir5      1.0000 0.40290  0.12500  0.05835  Biso   1.000  Ir
  O9       1.0000 0.40290  0.37500  0.01302  Biso   1.000  O
  O10      1.0000 0.40290  0.37500  0.10368  Biso   1.000  O
  O11      1.0000 0.70870  0.12500  0.05835  Biso   1.000  O
  O12      1.0000 0.09710  0.12500  0.05835  Biso   1.000  O
  O13      1.0000 0.20870  0.12500  0.17506  Biso   1.000  O
  Ir6      1.0000 0.90290  0.37500  0.05835  Biso   1.000  Ir
  Ir7      1.0000 0.90290  0.12500  0.17506  Biso   1.000  Ir
  O14      1.0000 0.90290  0.37500  0.12973  Biso   1.000  O
  O15      1.0000 0.90290  0.37500  0.22039  Biso   1.000  O
  O16      1.0000 0.59710  0.12500  0.17506  Biso   1.000  O
  Ir8      1.0000 0.40290  0.37500  0.17506  Biso   1.000  Ir
  Ir9      1.0000 0.40302  0.62271  0.28964  Biso   1.000  Ir
  O17      1.0000 0.40181  0.87346  0.24612  Biso   1.000  O
  O18      1.0000 0.40550  0.87289  0.33322  Biso   1.000  O
  O19      1.0000 0.71214  0.62297  0.29028  Biso   1.000  O
  O20      1.0000 0.09393  0.62264  0.29028  Biso   1.000  O
  O21      1.0000 0.21446  0.61925  0.40163  Biso   1.000  O
  Ir10     1.0000 0.90291  0.87285  0.29066  Biso   1.000  Ir
  Ir11     1.0000 0.90562  0.61983  0.40441  Biso   1.000  Ir
  O22      1.0000 0.90258  0.87047  0.36072  Biso   1.000  O
  O23      1.0000 0.90653  0.86976  0.44585  Biso   1.000  O
  O24      1.0000 0.59415  0.62019  0.40427  Biso   1.000  O
  Ir12     1.0000 0.40483  0.86785  0.40564  Biso   1.000  Ir
  Ir13     1.0000 0.40247  0.12325  0.28962  Biso   1.000  Ir
  O25      1.0000 0.40219  0.37349  0.24605  Biso   1.000  O
  O26      1.0000 0.40471  0.37254  0.33314  Biso   1.000  O
  O27      1.0000 0.71200  0.12297  0.29020  Biso   1.000  O
  O28      1.0000 0.09380  0.12277  0.29023  Biso   1.000  O
  O29      1.0000 0.21275  0.12008  0.40077  Biso   1.000  O
  Ir14     1.0000 0.90280  0.37282  0.29065  Biso   1.000  Ir
  Ir15     1.0000 0.90395  0.12001  0.40449  Biso   1.000  Ir
  O30      1.0000 0.90188  0.37049  0.36072  Biso   1.000  O
  O31      1.0000 0.90514  0.36974  0.44590  Biso   1.000  O
  O32      1.0000 0.59397  0.11724  0.40351  Biso   1.000  O
  Ir16     1.0000 0.40235  0.36790  0.40656  Biso   1.000  Ir
  O33      1.0000 0.39444  0.36500  0.47076  Biso   1.000  O
  O34      1.0000 0.38330  0.87508  0.47111  Biso   1.000  O
  C1       1.0000 0.63768  0.70842  0.52804  Biso   1.000  C
  H1       1.0000 0.74498  0.83410  0.53180  Biso   1.000  H
  H2       1.0000 0.70006  0.56968  0.51305  Biso   1.000  H
  H3       1.0000 0.52108  0.77627  0.49695  Biso   1.000  H
  H4       1.0000 0.48921  0.78896  0.58416  Biso   1.000  H
  O35      1.0000 0.52356  0.66434  0.56769  Biso   1.000  O
