data_image0
_cell_length_a       8.5311
_cell_length_b       8.5311
_cell_length_c       17.9656
_cell_angle_alpha    90
_cell_angle_beta     90
_cell_angle_gamma    60

loop_
  _atom_site_label
  _atom_site_occupancy
  _atom_site_fract_x
  _atom_site_fract_y
  _atom_site_fract_z
  _atom_site_thermal_displace_type
  _atom_site_B_iso_or_equiv
  _atom_site_type_symbol
  Pd1      1.0000 -0.00910  -0.00824  -0.00646  Biso   1.000  Pd
  Pd2      1.0000 0.32818  -0.01160  -0.00095  Biso   1.000  Pd
  Pd3      1.0000 0.66128  -0.00560  -0.00443  Biso   1.000  Pd
  Pd4      1.0000 -0.01276  0.32967  -0.00145  Biso   1.000  Pd
  Pd5      1.0000 0.32926  0.33013  -0.00422  Biso   1.000  Pd
  Pd6      1.0000 0.65838  0.32878  -0.00396  Biso   1.000  Pd
  C1       1.0000 0.03024  0.05224  0.18175  Biso   1.000  C
  H1       1.0000 0.10881  0.11751  0.12349  Biso   1.000  H
  H2       1.0000 0.15095  -0.04102  0.21214  Biso   1.000  H
  H3       1.0000 -0.03595  -0.00925  0.15206  Biso   1.000  H
  H4       1.0000 -0.05985  0.17828  0.20968  Biso   1.000  H
  O1       1.0000 0.16839  0.17129  0.08273  Biso   1.000  O
  Pd7      1.0000 -0.00650  0.66225  -0.00445  Biso   1.000  Pd
  Pd8      1.0000 0.32788  0.65924  -0.00390  Biso   1.000  Pd
  Pd9      1.0000 0.66090  0.66213  -0.00313  Biso   1.000  Pd
  Pd10     1.0000 0.10906  0.10942  -0.13230  Biso   1.000  Pd
  Pd11     1.0000 0.44175  0.10912  -0.13171  Biso   1.000  Pd
  Pd12     1.0000 0.77441  0.10989  -0.13265  Biso   1.000  Pd
  Pd13     1.0000 0.10877  0.44226  -0.13181  Biso   1.000  Pd
  Pd14     1.0000 0.44224  0.44269  -0.13220  Biso   1.000  Pd
  Pd15     1.0000 0.77776  0.44260  -0.12969  Biso   1.000  Pd
  Pd16     1.0000 0.10946  0.77486  -0.13265  Biso   1.000  Pd
  Pd17     1.0000 0.44198  0.77832  -0.12963  Biso   1.000  Pd
  Pd18     1.0000 0.77553  0.77597  -0.13212  Biso   1.000  Pd
  Pd19     1.0000 0.22222  0.22222  -0.25848  Biso   1.000  Pd
  Pd20     1.0000 0.55556  0.22222  -0.25848  Biso   1.000  Pd
  Pd21     1.0000 0.88889  0.22222  -0.25848  Biso   1.000  Pd
  Pd22     1.0000 0.22222  0.55556  -0.25848  Biso   1.000  Pd
  Pd23     1.0000 0.55556  0.55556  -0.25848  Biso   1.000  Pd
  Pd24     1.0000 0.88889  0.55556  -0.25848  Biso   1.000  Pd
  Pd25     1.0000 0.22222  0.88889  -0.25848  Biso   1.000  Pd
  Pd26     1.0000 0.55556  0.88889  -0.25848  Biso   1.000  Pd
  Pd27     1.0000 0.88889  0.88889  -0.25848  Biso   1.000  Pd
  Pd28     1.0000 0.00000  0.00000  -0.38772  Biso   1.000  Pd
  Pd29     1.0000 0.33333  0.00000  -0.38772  Biso   1.000  Pd
  Pd30     1.0000 0.66667  0.00000  -0.38772  Biso   1.000  Pd
  Pd31     1.0000 0.00000  0.33333  -0.38772  Biso   1.000  Pd
  Pd32     1.0000 0.33333  0.33333  -0.38772  Biso   1.000  Pd
  Pd33     1.0000 0.66667  0.33333  -0.38772  Biso   1.000  Pd
  Pd34     1.0000 0.00000  0.66667  -0.38772  Biso   1.000  Pd
  Pd35     1.0000 0.33333  0.66667  -0.38772  Biso   1.000  Pd
  Pd36     1.0000 0.66667  0.66667  -0.38772  Biso   1.000  Pd
