data_image0
_cell_length_a       8.53025
_cell_length_b       8.53025
_cell_length_c       17.9649
_cell_angle_alpha    90
_cell_angle_beta     90
_cell_angle_gamma    60

loop_
  _atom_site_label
  _atom_site_occupancy
  _atom_site_fract_x
  _atom_site_fract_y
  _atom_site_fract_z
  _atom_site_thermal_displace_type
  _atom_site_B_iso_or_equiv
  _atom_site_type_symbol
  Pt1      1.0000 -0.01423  -0.01489  -0.00569  Biso   1.000  Pt
  Pt2      1.0000 0.32654  -0.02007  0.00203  Biso   1.000  Pt
  Pt3      1.0000 0.65699  -0.01031  -0.00097  Biso   1.000  Pt
  Pt4      1.0000 -0.01891  0.32546  0.00240  Biso   1.000  Pt
  Pt5      1.0000 0.32859  0.32795  -0.00296  Biso   1.000  Pt
  Pt6      1.0000 0.65487  0.32325  0.00008  Biso   1.000  Pt
  C1       1.0000 0.04149  0.03160  0.18020  Biso   1.000  C
  H1       1.0000 0.10836  0.10119  0.12674  Biso   1.000  H
  H2       1.0000 0.16700  -0.07366  0.20495  Biso   1.000  H
  H3       1.0000 -0.03316  -0.01568  0.14718  Biso   1.000  H
  O1       1.0000 -0.07316  0.17136  0.22575  Biso   1.000  O
  O2       1.0000 0.16839  0.16538  0.08711  Biso   1.000  O
  Pt7      1.0000 -0.00961  0.65627  -0.00087  Biso   1.000  Pt
  Pt8      1.0000 0.32388  0.65415  0.00008  Biso   1.000  Pt
  Pt9      1.0000 0.65794  0.65683  0.00054  Biso   1.000  Pt
  Pt10     1.0000 0.10771  0.10746  -0.13108  Biso   1.000  Pt
  Pt11     1.0000 0.44026  0.10739  -0.13059  Biso   1.000  Pt
  Pt12     1.0000 0.77211  0.10883  -0.13205  Biso   1.000  Pt
  Pt13     1.0000 0.10767  0.43994  -0.13051  Biso   1.000  Pt
  Pt14     1.0000 0.44214  0.44181  -0.13171  Biso   1.000  Pt
  Pt15     1.0000 0.77846  0.43961  -0.12756  Biso   1.000  Pt
  Pt16     1.0000 0.10910  0.77182  -0.13205  Biso   1.000  Pt
  Pt17     1.0000 0.44009  0.77797  -0.12758  Biso   1.000  Pt
  Pt18     1.0000 0.77438  0.77402  -0.13088  Biso   1.000  Pt
  Pt19     1.0000 0.22222  0.22222  -0.25846  Biso   1.000  Pt
  Pt20     1.0000 0.55556  0.22222  -0.25846  Biso   1.000  Pt
  Pt21     1.0000 0.88889  0.22222  -0.25846  Biso   1.000  Pt
  Pt22     1.0000 0.22222  0.55556  -0.25846  Biso   1.000  Pt
  Pt23     1.0000 0.55556  0.55556  -0.25846  Biso   1.000  Pt
  Pt24     1.0000 0.88889  0.55556  -0.25846  Biso   1.000  Pt
  Pt25     1.0000 0.22222  0.88889  -0.25846  Biso   1.000  Pt
  Pt26     1.0000 0.55556  0.88889  -0.25846  Biso   1.000  Pt
  Pt27     1.0000 0.88889  0.88889  -0.25846  Biso   1.000  Pt
  Pt28     1.0000 0.00000  0.00000  -0.38770  Biso   1.000  Pt
  Pt29     1.0000 0.33333  0.00000  -0.38770  Biso   1.000  Pt
  Pt30     1.0000 0.66667  0.00000  -0.38770  Biso   1.000  Pt
  Pt31     1.0000 0.00000  0.33333  -0.38770  Biso   1.000  Pt
  Pt32     1.0000 0.33333  0.33333  -0.38770  Biso   1.000  Pt
  Pt33     1.0000 0.66667  0.33333  -0.38770  Biso   1.000  Pt
  Pt34     1.0000 0.00000  0.66667  -0.38770  Biso   1.000  Pt
  Pt35     1.0000 0.33333  0.66667  -0.38770  Biso   1.000  Pt
  Pt36     1.0000 0.66667  0.66667  -0.38770  Biso   1.000  Pt
  H4       1.0000 -0.00419  0.20385  0.25860  Biso   1.000  H
