data_image0
_cell_length_a       8.53025
_cell_length_b       8.53025
_cell_length_c       17.9649
_cell_angle_alpha    90
_cell_angle_beta     90
_cell_angle_gamma    60

loop_
  _atom_site_label
  _atom_site_occupancy
  _atom_site_fract_x
  _atom_site_fract_y
  _atom_site_fract_z
  _atom_site_thermal_displace_type
  _atom_site_B_iso_or_equiv
  _atom_site_type_symbol
  Pt1      1.0000 -0.01014  -0.01036  -0.00410  Biso   1.000  Pt
  Pt2      1.0000 0.32901  -0.01420  0.00252  Biso   1.000  Pt
  Pt3      1.0000 0.66078  -0.00612  -0.00114  Biso   1.000  Pt
  Pt4      1.0000 -0.01403  0.32869  0.00263  Biso   1.000  Pt
  Pt5      1.0000 0.33257  0.33239  -0.00366  Biso   1.000  Pt
  Pt6      1.0000 0.65891  0.32747  0.00008  Biso   1.000  Pt
  C1       1.0000 0.04520  0.03842  0.18580  Biso   1.000  C
  H1       1.0000 0.11494  0.11266  0.12821  Biso   1.000  H
  H2       1.0000 0.17104  -0.05265  0.21362  Biso   1.000  H
  H3       1.0000 -0.01861  -0.02557  0.15632  Biso   1.000  H
  H4       1.0000 -0.04576  0.16235  0.21484  Biso   1.000  H
  O1       1.0000 0.17283  0.17216  0.08921  Biso   1.000  O
  Pt7      1.0000 -0.00589  0.66052  -0.00114  Biso   1.000  Pt
  Pt8      1.0000 0.32770  0.65872  0.00005  Biso   1.000  Pt
  Pt9      1.0000 0.66154  0.66127  0.00066  Biso   1.000  Pt
  Pt10     1.0000 0.10941  0.10931  -0.13099  Biso   1.000  Pt
  Pt11     1.0000 0.44219  0.10934  -0.13072  Biso   1.000  Pt
  Pt12     1.0000 0.77461  0.11035  -0.13164  Biso   1.000  Pt
  Pt13     1.0000 0.10943  0.44206  -0.13070  Biso   1.000  Pt
  Pt14     1.0000 0.44426  0.44415  -0.13186  Biso   1.000  Pt
  Pt15     1.0000 0.78064  0.44153  -0.12730  Biso   1.000  Pt
  Pt16     1.0000 0.11045  0.77450  -0.13164  Biso   1.000  Pt
  Pt17     1.0000 0.44168  0.78051  -0.12731  Biso   1.000  Pt
  Pt18     1.0000 0.77607  0.77595  -0.13091  Biso   1.000  Pt
  Pt19     1.0000 0.22222  0.22222  -0.25846  Biso   1.000  Pt
  Pt20     1.0000 0.55556  0.22222  -0.25846  Biso   1.000  Pt
  Pt21     1.0000 0.88889  0.22222  -0.25846  Biso   1.000  Pt
  Pt22     1.0000 0.22222  0.55556  -0.25846  Biso   1.000  Pt
  Pt23     1.0000 0.55556  0.55556  -0.25846  Biso   1.000  Pt
  Pt24     1.0000 0.88889  0.55556  -0.25846  Biso   1.000  Pt
  Pt25     1.0000 0.22222  0.88889  -0.25846  Biso   1.000  Pt
  Pt26     1.0000 0.55556  0.88889  -0.25846  Biso   1.000  Pt
  Pt27     1.0000 0.88889  0.88889  -0.25846  Biso   1.000  Pt
  Pt28     1.0000 0.00000  0.00000  -0.38770  Biso   1.000  Pt
  Pt29     1.0000 0.33333  0.00000  -0.38770  Biso   1.000  Pt
  Pt30     1.0000 0.66667  0.00000  -0.38770  Biso   1.000  Pt
  Pt31     1.0000 0.00000  0.33333  -0.38770  Biso   1.000  Pt
  Pt32     1.0000 0.33333  0.33333  -0.38770  Biso   1.000  Pt
  Pt33     1.0000 0.66667  0.33333  -0.38770  Biso   1.000  Pt
  Pt34     1.0000 0.00000  0.66667  -0.38770  Biso   1.000  Pt
  Pt35     1.0000 0.33333  0.66667  -0.38770  Biso   1.000  Pt
  Pt36     1.0000 0.66667  0.66667  -0.38770  Biso   1.000  Pt
