data_image0
_cell_length_a       6.52149
_cell_length_b       6.28254
_cell_length_c       28.043
_cell_angle_alpha    90
_cell_angle_beta     90
_cell_angle_gamma    90

_symmetry_space_group_name_H-M    "P 1"
_symmetry_int_tables_number       1

loop_
  _symmetry_equiv_pos_as_xyz
  'x, y, z'

loop_
  _atom_site_label
  _atom_site_occupancy
  _atom_site_fract_x
  _atom_site_fract_y
  _atom_site_fract_z
  _atom_site_thermal_displace_type
  _atom_site_B_iso_or_equiv
  _atom_site_type_symbol
  Rh1      1.0000 0.40290  0.62500  0.05814  Biso   1.000  Rh
  O1       1.0000 0.40290  0.87500  0.01298  Biso   1.000  O
  O2       1.0000 0.40290  0.87500  0.10330  Biso   1.000  O
  O3       1.0000 0.70870  0.62500  0.05814  Biso   1.000  O
  O4       1.0000 0.09710  0.62500  0.05814  Biso   1.000  O
  O5       1.0000 0.20870  0.62500  0.17441  Biso   1.000  O
  Rh2      1.0000 0.90290  0.87500  0.05814  Biso   1.000  Rh
  Rh3      1.0000 0.90290  0.62500  0.17441  Biso   1.000  Rh
  O6       1.0000 0.90290  0.87500  0.12925  Biso   1.000  O
  O7       1.0000 0.90290  0.87500  0.21958  Biso   1.000  O
  O8       1.0000 0.59710  0.62500  0.17441  Biso   1.000  O
  Rh4      1.0000 0.40290  0.87500  0.17441  Biso   1.000  Rh
  Rh5      1.0000 0.40290  0.12500  0.05814  Biso   1.000  Rh
  O9       1.0000 0.40290  0.37500  0.01298  Biso   1.000  O
  O10      1.0000 0.40290  0.37500  0.10330  Biso   1.000  O
  O11      1.0000 0.70870  0.12500  0.05814  Biso   1.000  O
  O12      1.0000 0.09710  0.12500  0.05814  Biso   1.000  O
  O13      1.0000 0.20870  0.12500  0.17441  Biso   1.000  O
  Rh6      1.0000 0.90290  0.37500  0.05814  Biso   1.000  Rh
  Rh7      1.0000 0.90290  0.12500  0.17441  Biso   1.000  Rh
  O14      1.0000 0.90290  0.37500  0.12925  Biso   1.000  O
  O15      1.0000 0.90290  0.37500  0.21958  Biso   1.000  O
  O16      1.0000 0.59710  0.12500  0.17441  Biso   1.000  O
  Rh8      1.0000 0.40290  0.37500  0.17441  Biso   1.000  Rh
  Rh9      1.0000 0.40437  0.62707  0.29120  Biso   1.000  Rh
  O17      1.0000 0.40448  0.87415  0.24588  Biso   1.000  O
  O18      1.0000 0.40598  0.87378  0.33736  Biso   1.000  O
  O19      1.0000 0.71091  0.62418  0.29190  Biso   1.000  O
  O20      1.0000 0.09826  0.62456  0.29111  Biso   1.000  O
  O21      1.0000 0.21901  0.61526  0.40967  Biso   1.000  O
  Rh10     1.0000 0.90466  0.87331  0.29163  Biso   1.000  Rh
  Rh11     1.0000 0.91135  0.61943  0.40818  Biso   1.000  Rh
  O22      1.0000 0.90994  0.87033  0.36266  Biso   1.000  O
  O23      1.0000 0.91060  0.86880  0.45171  Biso   1.000  O
  O24      1.0000 0.60208  0.61605  0.40976  Biso   1.000  O
  Rh12     1.0000 0.41134  0.86660  0.41262  Biso   1.000  Rh
  Rh13     1.0000 0.40425  0.12064  0.29117  Biso   1.000  Rh
  O25      1.0000 0.40353  0.37409  0.24597  Biso   1.000  O
  O26      1.0000 0.40227  0.37301  0.33518  Biso   1.000  O
  O27      1.0000 0.71094  0.12261  0.29176  Biso   1.000  O
  O28      1.0000 0.09818  0.12244  0.29095  Biso   1.000  O
  O29      1.0000 0.21740  0.12191  0.41042  Biso   1.000  O
  Rh14     1.0000 0.90473  0.37329  0.29153  Biso   1.000  Rh
  Rh15     1.0000 0.91031  0.11971  0.40846  Biso   1.000  Rh
  O30      1.0000 0.90926  0.37032  0.36269  Biso   1.000  O
  O31      1.0000 0.90741  0.37048  0.45203  Biso   1.000  O
  O32      1.0000 0.60143  0.11970  0.40969  Biso   1.000  O
  Rh16     1.0000 0.40943  0.36690  0.40378  Biso   1.000  Rh
  O33      1.0000 0.39473  0.87217  0.47904  Biso   1.000  O
  C1       1.0000 0.64630  0.68456  0.53735  Biso   1.000  C
  H1       1.0000 0.77067  0.79918  0.54069  Biso   1.000  H
  H2       1.0000 0.69334  0.53301  0.52212  Biso   1.000  H
  H3       1.0000 0.53512  0.76481  0.50736  Biso   1.000  H
  H4       1.0000 0.53155  0.77846  0.59753  Biso   1.000  H
  O34      1.0000 0.53569  0.64950  0.57885  Biso   1.000  O
