data_image0
_cell_length_a       6.52149
_cell_length_b       6.28254
_cell_length_c       28.043
_cell_angle_alpha    90
_cell_angle_beta     90
_cell_angle_gamma    90

_symmetry_space_group_name_H-M    "P 1"
_symmetry_int_tables_number       1

loop_
  _symmetry_equiv_pos_as_xyz
  'x, y, z'

loop_
  _atom_site_label
  _atom_site_occupancy
  _atom_site_fract_x
  _atom_site_fract_y
  _atom_site_fract_z
  _atom_site_thermal_displace_type
  _atom_site_B_iso_or_equiv
  _atom_site_type_symbol
  Rh1      1.0000 0.40290  0.62500  0.05814  Biso   1.000  Rh
  O1       1.0000 0.40290  0.87500  0.01298  Biso   1.000  O
  O2       1.0000 0.40290  0.87500  0.10330  Biso   1.000  O
  O3       1.0000 0.70870  0.62500  0.05814  Biso   1.000  O
  O4       1.0000 0.09710  0.62500  0.05814  Biso   1.000  O
  O5       1.0000 0.20870  0.62500  0.17441  Biso   1.000  O
  Rh2      1.0000 0.90290  0.87500  0.05814  Biso   1.000  Rh
  Rh3      1.0000 0.90290  0.62500  0.17441  Biso   1.000  Rh
  O6       1.0000 0.90290  0.87500  0.12925  Biso   1.000  O
  O7       1.0000 0.90290  0.87500  0.21958  Biso   1.000  O
  O8       1.0000 0.59710  0.62500  0.17441  Biso   1.000  O
  Rh4      1.0000 0.40290  0.87500  0.17441  Biso   1.000  Rh
  Rh5      1.0000 0.40290  0.12500  0.05814  Biso   1.000  Rh
  O9       1.0000 0.40290  0.37500  0.01298  Biso   1.000  O
  O10      1.0000 0.40290  0.37500  0.10330  Biso   1.000  O
  O11      1.0000 0.70870  0.12500  0.05814  Biso   1.000  O
  O12      1.0000 0.09710  0.12500  0.05814  Biso   1.000  O
  O13      1.0000 0.20870  0.12500  0.17441  Biso   1.000  O
  Rh6      1.0000 0.90290  0.37500  0.05814  Biso   1.000  Rh
  Rh7      1.0000 0.90290  0.12500  0.17441  Biso   1.000  Rh
  O14      1.0000 0.90290  0.37500  0.12925  Biso   1.000  O
  O15      1.0000 0.90290  0.37500  0.21958  Biso   1.000  O
  O16      1.0000 0.59710  0.12500  0.17441  Biso   1.000  O
  Rh8      1.0000 0.40290  0.37500  0.17441  Biso   1.000  Rh
  Rh9      1.0000 0.40298  0.62843  0.29039  Biso   1.000  Rh
  O17      1.0000 0.40331  0.87511  0.24547  Biso   1.000  O
  O18      1.0000 0.40226  0.87533  0.33593  Biso   1.000  O
  O19      1.0000 0.70946  0.62554  0.29076  Biso   1.000  O
  O20      1.0000 0.09664  0.62561  0.29070  Biso   1.000  O
  O21      1.0000 0.21036  0.62298  0.40736  Biso   1.000  O
  Rh10     1.0000 0.90292  0.87488  0.29103  Biso   1.000  Rh
  Rh11     1.0000 0.90259  0.62525  0.40729  Biso   1.000  Rh
  O22      1.0000 0.90247  0.87552  0.36172  Biso   1.000  O
  O23      1.0000 0.90269  0.87612  0.45065  Biso   1.000  O
  O24      1.0000 0.59480  0.62283  0.40734  Biso   1.000  O
  Rh12     1.0000 0.40250  0.87552  0.41165  Biso   1.000  Rh
  Rh13     1.0000 0.40285  0.12147  0.29037  Biso   1.000  Rh
  O25      1.0000 0.40265  0.37483  0.24555  Biso   1.000  O
  O26      1.0000 0.40170  0.37480  0.33415  Biso   1.000  O
  O27      1.0000 0.70920  0.12414  0.29065  Biso   1.000  O
  O28      1.0000 0.09643  0.12409  0.29057  Biso   1.000  O
  O29      1.0000 0.21019  0.12840  0.40727  Biso   1.000  O
  Rh14     1.0000 0.90293  0.37486  0.29088  Biso   1.000  Rh
  Rh15     1.0000 0.90251  0.12553  0.40726  Biso   1.000  Rh
  O30      1.0000 0.90224  0.37497  0.36159  Biso   1.000  O
  O31      1.0000 0.90177  0.37480  0.45046  Biso   1.000  O
  O32      1.0000 0.59467  0.12806  0.40718  Biso   1.000  O
  Rh16     1.0000 0.40257  0.37555  0.40231  Biso   1.000  Rh
  O33      1.0000 0.40263  0.87570  0.47578  Biso   1.000  O
