data_image0
_cell_length_a       6.42656
_cell_length_b       6.29684
_cell_length_c       28.2472
_cell_angle_alpha    90
_cell_angle_beta     90
_cell_angle_gamma    90

loop_
  _atom_site_label
  _atom_site_occupancy
  _atom_site_fract_x
  _atom_site_fract_y
  _atom_site_fract_z
  _atom_site_thermal_displace_type
  _atom_site_B_iso_or_equiv
  _atom_site_type_symbol
  O1       1.0000 0.90310  0.37682  0.45006  Biso   1.000  O
  Ru1      1.0000 0.40479  0.37431  0.41545  Biso   1.000  Ru
  Ru2      1.0000 0.90431  0.12746  0.41115  Biso   1.000  Ru
  O2       1.0000 0.40272  0.37791  0.34200  Biso   1.000  O
  O3       1.0000 0.90555  0.37876  0.36534  Biso   1.000  O
  O4       1.0000 0.21290  0.12595  0.40880  Biso   1.000  O
  O5       1.0000 0.59607  0.12685  0.40790  Biso   1.000  O
  Ru3      1.0000 0.90375  0.37695  0.29672  Biso   1.000  Ru
  Ru4      1.0000 0.40352  0.12669  0.29748  Biso   1.000  Ru
  O6       1.0000 0.90308  0.37500  0.22751  Biso   1.000  O
  O7       1.0000 0.40329  0.37626  0.25296  Biso   1.000  O
  O8       1.0000 0.70928  0.12700  0.29686  Biso   1.000  O
  O9       1.0000 0.09803  0.12688  0.29654  Biso   1.000  O
  Ru5      1.0000 0.40308  0.37500  0.18341  Biso   1.000  Ru
  Ru6      1.0000 0.90308  0.12500  0.18341  Biso   1.000  Ru
  O10      1.0000 0.40308  0.37500  0.11376  Biso   1.000  O
  O11      1.0000 0.90308  0.37500  0.13931  Biso   1.000  O
  O12      1.0000 0.20923  0.12500  0.18341  Biso   1.000  O
  O13      1.0000 0.59692  0.12500  0.18341  Biso   1.000  O
  Ru7      1.0000 0.90308  0.37500  0.06965  Biso   1.000  Ru
  Ru8      1.0000 0.40308  0.12500  0.06965  Biso   1.000  Ru
  O14      1.0000 0.40308  0.37500  0.02555  Biso   1.000  O
  O15      1.0000 0.70923  0.12500  0.06965  Biso   1.000  O
  O16      1.0000 0.09692  0.12500  0.06965  Biso   1.000  O
  O17      1.0000 0.90279  0.87760  0.45003  Biso   1.000  O
  Ru9      1.0000 0.40443  0.87463  0.41549  Biso   1.000  Ru
  Ru10     1.0000 0.90425  0.62759  0.41142  Biso   1.000  Ru
  O18      1.0000 0.40286  0.87757  0.34198  Biso   1.000  O
  O19      1.0000 0.90484  0.87747  0.36533  Biso   1.000  O
  O20      1.0000 0.21332  0.62685  0.40949  Biso   1.000  O
  O21      1.0000 0.59559  0.62593  0.40866  Biso   1.000  O
  Ru11     1.0000 0.90363  0.87675  0.29672  Biso   1.000  Ru
  Ru12     1.0000 0.40348  0.62664  0.29749  Biso   1.000  Ru
  O22      1.0000 0.90308  0.87500  0.22751  Biso   1.000  O
  O23      1.0000 0.40343  0.87641  0.25298  Biso   1.000  O
  O24      1.0000 0.70905  0.62686  0.29679  Biso   1.000  O
  O25      1.0000 0.09818  0.62700  0.29646  Biso   1.000  O
  Ru13     1.0000 0.40308  0.87500  0.18341  Biso   1.000  Ru
  Ru14     1.0000 0.90308  0.62500  0.18341  Biso   1.000  Ru
  O26      1.0000 0.40308  0.87500  0.11376  Biso   1.000  O
  O27      1.0000 0.90308  0.87500  0.13931  Biso   1.000  O
  O28      1.0000 0.20923  0.62500  0.18341  Biso   1.000  O
  O29      1.0000 0.59692  0.62500  0.18341  Biso   1.000  O
  Ru15     1.0000 0.90308  0.87500  0.06965  Biso   1.000  Ru
  Ru16     1.0000 0.40308  0.62500  0.06965  Biso   1.000  Ru
  O30      1.0000 0.40308  0.87500  0.02555  Biso   1.000  O
  O31      1.0000 0.70923  0.62500  0.06965  Biso   1.000  O
  O32      1.0000 0.09692  0.62500  0.06965  Biso   1.000  O
  O33      1.0000 0.40978  0.88354  0.47549  Biso   1.000  O
  O34      1.0000 0.40673  0.37587  0.47551  Biso   1.000  O
