data_image0
_cell_length_a       6.42656
_cell_length_b       6.29684
_cell_length_c       28.2472
_cell_angle_alpha    90
_cell_angle_beta     90
_cell_angle_gamma    90

loop_
  _atom_site_label
  _atom_site_occupancy
  _atom_site_fract_x
  _atom_site_fract_y
  _atom_site_fract_z
  _atom_site_thermal_displace_type
  _atom_site_B_iso_or_equiv
  _atom_site_type_symbol
  O1       1.0000 0.91095  0.36721  0.45081  Biso   1.000  O
  Ru1      1.0000 0.40796  0.36133  0.41617  Biso   1.000  Ru
  Ru2      1.0000 0.91019  0.11866  0.41124  Biso   1.000  Ru
  O2       1.0000 0.40855  0.37171  0.34246  Biso   1.000  O
  O3       1.0000 0.90730  0.36936  0.36550  Biso   1.000  O
  O4       1.0000 0.21594  0.11642  0.40810  Biso   1.000  O
  O5       1.0000 0.60131  0.11523  0.40921  Biso   1.000  O
  Ru3      1.0000 0.90578  0.37177  0.29677  Biso   1.000  Ru
  Ru4      1.0000 0.40554  0.12263  0.29736  Biso   1.000  Ru
  O6       1.0000 0.90308  0.37500  0.22751  Biso   1.000  O
  O7       1.0000 0.40459  0.37220  0.25289  Biso   1.000  O
  O8       1.0000 0.71144  0.12166  0.29686  Biso   1.000  O
  O9       1.0000 0.10011  0.12192  0.29661  Biso   1.000  O
  Ru5      1.0000 0.40308  0.37500  0.18341  Biso   1.000  Ru
  Ru6      1.0000 0.90308  0.12500  0.18341  Biso   1.000  Ru
  O10      1.0000 0.40308  0.37500  0.11376  Biso   1.000  O
  O11      1.0000 0.90308  0.37500  0.13931  Biso   1.000  O
  O12      1.0000 0.20923  0.12500  0.18341  Biso   1.000  O
  O13      1.0000 0.59692  0.12500  0.18341  Biso   1.000  O
  Ru7      1.0000 0.90308  0.37500  0.06965  Biso   1.000  Ru
  Ru8      1.0000 0.40308  0.12500  0.06965  Biso   1.000  Ru
  O14      1.0000 0.40308  0.37500  0.02555  Biso   1.000  O
  O15      1.0000 0.70923  0.12500  0.06965  Biso   1.000  O
  O16      1.0000 0.09692  0.12500  0.06965  Biso   1.000  O
  O17      1.0000 0.91138  0.86868  0.45042  Biso   1.000  O
  Ru9      1.0000 0.41012  0.86230  0.41217  Biso   1.000  Ru
  Ru10     1.0000 0.91097  0.61738  0.41167  Biso   1.000  Ru
  O18      1.0000 0.40715  0.87168  0.34119  Biso   1.000  O
  O19      1.0000 0.90713  0.86798  0.36551  Biso   1.000  O
  O20      1.0000 0.21847  0.61665  0.40923  Biso   1.000  O
  O21      1.0000 0.60163  0.61437  0.41197  Biso   1.000  O
  Ru11     1.0000 0.90573  0.87158  0.29684  Biso   1.000  Ru
  Ru12     1.0000 0.40631  0.62010  0.29748  Biso   1.000  Ru
  O22      1.0000 0.90308  0.87500  0.22751  Biso   1.000  O
  O23      1.0000 0.40471  0.87222  0.25300  Biso   1.000  O
  O24      1.0000 0.71145  0.62132  0.29680  Biso   1.000  O
  O25      1.0000 0.10056  0.62140  0.29668  Biso   1.000  O
  Ru13     1.0000 0.40308  0.87500  0.18341  Biso   1.000  Ru
  Ru14     1.0000 0.90308  0.62500  0.18341  Biso   1.000  Ru
  O26      1.0000 0.40308  0.87500  0.11376  Biso   1.000  O
  O27      1.0000 0.90308  0.87500  0.13931  Biso   1.000  O
  O28      1.0000 0.20923  0.62500  0.18341  Biso   1.000  O
  O29      1.0000 0.59692  0.62500  0.18341  Biso   1.000  O
  Ru15     1.0000 0.90308  0.87500  0.06965  Biso   1.000  Ru
  Ru16     1.0000 0.40308  0.62500  0.06965  Biso   1.000  Ru
  O30      1.0000 0.40308  0.87500  0.02555  Biso   1.000  O
  O31      1.0000 0.70923  0.62500  0.06965  Biso   1.000  O
  O32      1.0000 0.09692  0.62500  0.06965  Biso   1.000  O
  O33      1.0000 0.39753  0.88126  0.47733  Biso   1.000  O
  O34      1.0000 0.39440  0.35700  0.47635  Biso   1.000  O
  C1       1.0000 0.63841  0.68942  0.53582  Biso   1.000  C
  H1       1.0000 0.75681  0.80998  0.53991  Biso   1.000  H
  H2       1.0000 0.52081  0.67762  0.56310  Biso   1.000  H
  H3       1.0000 0.68455  0.54310  0.51890  Biso   1.000  H
  H4       1.0000 0.50756  0.79209  0.50031  Biso   1.000  H
