data_image0
_cell_length_a       6.42656
_cell_length_b       6.29684
_cell_length_c       28.2472
_cell_angle_alpha    90
_cell_angle_beta     90
_cell_angle_gamma    90

loop_
  _atom_site_label
  _atom_site_occupancy
  _atom_site_fract_x
  _atom_site_fract_y
  _atom_site_fract_z
  _atom_site_thermal_displace_type
  _atom_site_B_iso_or_equiv
  _atom_site_type_symbol
  O1       1.0000 0.91122  0.36629  0.45103  Biso   1.000  O
  Ru1      1.0000 0.40764  0.35838  0.41631  Biso   1.000  Ru
  Ru2      1.0000 0.90963  0.11737  0.41135  Biso   1.000  Ru
  O2       1.0000 0.40686  0.37066  0.34275  Biso   1.000  O
  O3       1.0000 0.90743  0.36846  0.36560  Biso   1.000  O
  O4       1.0000 0.21537  0.11435  0.40893  Biso   1.000  O
  O5       1.0000 0.60090  0.11304  0.40983  Biso   1.000  O
  Ru3      1.0000 0.90513  0.37135  0.29676  Biso   1.000  Ru
  Ru4      1.0000 0.40438  0.12172  0.29772  Biso   1.000  Ru
  O6       1.0000 0.90308  0.37500  0.22751  Biso   1.000  O
  O7       1.0000 0.40405  0.37190  0.25316  Biso   1.000  O
  O8       1.0000 0.71051  0.12123  0.29702  Biso   1.000  O
  O9       1.0000 0.09936  0.12126  0.29663  Biso   1.000  O
  Ru5      1.0000 0.40308  0.37500  0.18341  Biso   1.000  Ru
  Ru6      1.0000 0.90308  0.12500  0.18341  Biso   1.000  Ru
  O10      1.0000 0.40308  0.37500  0.11376  Biso   1.000  O
  O11      1.0000 0.90308  0.37500  0.13931  Biso   1.000  O
  O12      1.0000 0.20923  0.12500  0.18341  Biso   1.000  O
  O13      1.0000 0.59692  0.12500  0.18341  Biso   1.000  O
  Ru7      1.0000 0.90308  0.37500  0.06965  Biso   1.000  Ru
  Ru8      1.0000 0.40308  0.12500  0.06965  Biso   1.000  Ru
  O14      1.0000 0.40308  0.37500  0.02555  Biso   1.000  O
  O15      1.0000 0.70923  0.12500  0.06965  Biso   1.000  O
  O16      1.0000 0.09692  0.12500  0.06965  Biso   1.000  O
  O17      1.0000 0.90966  0.86688  0.45081  Biso   1.000  O
  Ru9      1.0000 0.41015  0.85937  0.41348  Biso   1.000  Ru
  Ru10     1.0000 0.91100  0.61620  0.41151  Biso   1.000  Ru
  O18      1.0000 0.40555  0.87157  0.34202  Biso   1.000  O
  O19      1.0000 0.90652  0.86743  0.36569  Biso   1.000  O
  O20      1.0000 0.21840  0.61616  0.40980  Biso   1.000  O
  O21      1.0000 0.60168  0.61037  0.41216  Biso   1.000  O
  Ru11     1.0000 0.90490  0.87126  0.29688  Biso   1.000  Ru
  Ru12     1.0000 0.40558  0.61992  0.29786  Biso   1.000  Ru
  O22      1.0000 0.90308  0.87500  0.22751  Biso   1.000  O
  O23      1.0000 0.40430  0.87173  0.25323  Biso   1.000  O
  O24      1.0000 0.71073  0.62093  0.29701  Biso   1.000  O
  O25      1.0000 0.09980  0.62123  0.29679  Biso   1.000  O
  Ru13     1.0000 0.40308  0.87500  0.18341  Biso   1.000  Ru
  Ru14     1.0000 0.90308  0.62500  0.18341  Biso   1.000  Ru
  O26      1.0000 0.40308  0.87500  0.11376  Biso   1.000  O
  O27      1.0000 0.90308  0.87500  0.13931  Biso   1.000  O
  O28      1.0000 0.20923  0.62500  0.18341  Biso   1.000  O
  O29      1.0000 0.59692  0.62500  0.18341  Biso   1.000  O
  Ru15     1.0000 0.90308  0.87500  0.06965  Biso   1.000  Ru
  Ru16     1.0000 0.40308  0.62500  0.06965  Biso   1.000  Ru
  O30      1.0000 0.40308  0.87500  0.02555  Biso   1.000  O
  O31      1.0000 0.70923  0.62500  0.06965  Biso   1.000  O
  O32      1.0000 0.09692  0.62500  0.06965  Biso   1.000  O
  O33      1.0000 0.40380  0.87740  0.47815  Biso   1.000  O
  O34      1.0000 0.39294  0.35628  0.47666  Biso   1.000  O
  C1       1.0000 0.64186  0.66584  0.53372  Biso   1.000  C
  H1       1.0000 0.76185  0.78564  0.53864  Biso   1.000  H
  O35      1.0000 0.52729  0.61386  0.57268  Biso   1.000  O
  H2       1.0000 0.68252  0.52592  0.51353  Biso   1.000  H
  H3       1.0000 0.51489  0.77272  0.50172  Biso   1.000  H
  H4       1.0000 0.52143  0.73247  0.59431  Biso   1.000  H
