data_image0
_cell_length_a       8.92079
_cell_length_b       8.92079
_cell_length_c       18.2838
_cell_angle_alpha    90
_cell_angle_beta     90
_cell_angle_gamma    60

_symmetry_space_group_name_H-M    "P 1"
_symmetry_int_tables_number       1

loop_
  _symmetry_equiv_pos_as_xyz
  'x, y, z'

loop_
  _atom_site_label
  _atom_site_occupancy
  _atom_site_fract_x
  _atom_site_fract_y
  _atom_site_fract_z
  _atom_site_thermal_displace_type
  _atom_site_B_iso_or_equiv
  _atom_site_type_symbol
  Ag1      1.0000 0.99636  0.99917  0.99797  Biso   1.000  Ag
  Ag2      1.0000 0.33708  0.98802  0.00362  Biso   1.000  Ag
  Ag3      1.0000 0.66697  0.99984  0.99867  Biso   1.000  Ag
  Ag4      1.0000 0.98428  0.34111  0.99537  Biso   1.000  Ag
  Ag5      1.0000 0.33714  0.34153  0.00339  Biso   1.000  Ag
  Ag6      1.0000 0.66407  0.33428  0.99791  Biso   1.000  Ag
  C1       1.0000 0.03382  0.32502  0.19504  Biso   1.000  C
  H1       1.0000 0.14293  0.26533  0.13082  Biso   1.000  H
  H2       1.0000 0.07237  0.20748  0.22581  Biso   1.000  H
  H3       1.0000 0.90372  0.38490  0.17292  Biso   1.000  H
  H4       1.0000 0.06688  0.41478  0.22007  Biso   1.000  H
  O1       1.0000 0.20876  0.22948  0.07612  Biso   1.000  O
  Ag7      1.0000 0.99633  0.67117  0.99794  Biso   1.000  Ag
  Ag8      1.0000 0.33158  0.66753  0.99827  Biso   1.000  Ag
  Ag9      1.0000 0.66409  0.66835  0.99792  Biso   1.000  Ag
  Ag10     1.0000 0.11132  0.11098  0.86643  Biso   1.000  Ag
  Ag11     1.0000 0.44175  0.11245  0.86823  Biso   1.000  Ag
  Ag12     1.0000 0.77650  0.11199  0.86544  Biso   1.000  Ag
  Ag13     1.0000 0.11126  0.44444  0.86641  Biso   1.000  Ag
  Ag14     1.0000 0.44165  0.44365  0.86653  Biso   1.000  Ag
  Ag15     1.0000 0.77733  0.44470  0.86517  Biso   1.000  Ag
  Ag16     1.0000 0.11069  0.77802  0.86536  Biso   1.000  Ag
  Ag17     1.0000 0.44165  0.78140  0.86654  Biso   1.000  Ag
  Ag18     1.0000 0.77649  0.77821  0.86543  Biso   1.000  Ag
  Ag19     1.0000 0.22222  0.22222  0.73442  Biso   1.000  Ag
  Ag20     1.0000 0.55556  0.22222  0.73442  Biso   1.000  Ag
  Ag21     1.0000 0.88889  0.22222  0.73442  Biso   1.000  Ag
  Ag22     1.0000 0.22222  0.55556  0.73442  Biso   1.000  Ag
  Ag23     1.0000 0.55556  0.55556  0.73442  Biso   1.000  Ag
  Ag24     1.0000 0.88889  0.55556  0.73442  Biso   1.000  Ag
  Ag25     1.0000 0.22222  0.88889  0.73442  Biso   1.000  Ag
  Ag26     1.0000 0.55556  0.88889  0.73442  Biso   1.000  Ag
  Ag27     1.0000 0.88889  0.88889  0.73442  Biso   1.000  Ag
  Ag28     1.0000 0.00000  0.00000  0.60163  Biso   1.000  Ag
  Ag29     1.0000 0.33333  0.00000  0.60163  Biso   1.000  Ag
  Ag30     1.0000 0.66667  0.00000  0.60163  Biso   1.000  Ag
  Ag31     1.0000 0.00000  0.33333  0.60163  Biso   1.000  Ag
  Ag32     1.0000 0.33333  0.33333  0.60163  Biso   1.000  Ag
  Ag33     1.0000 0.66667  0.33333  0.60163  Biso   1.000  Ag
  Ag34     1.0000 0.00000  0.66667  0.60163  Biso   1.000  Ag
  Ag35     1.0000 0.33333  0.66667  0.60163  Biso   1.000  Ag
  Ag36     1.0000 0.66667  0.66667  0.60163  Biso   1.000  Ag
