data_image0
_cell_length_a       7.86883
_cell_length_b       7.86883
_cell_length_c       17.4249
_cell_angle_alpha    90
_cell_angle_beta     90
_cell_angle_gamma    60

loop_
  _atom_site_label
  _atom_site_occupancy
  _atom_site_fract_x
  _atom_site_fract_y
  _atom_site_fract_z
  _atom_site_thermal_displace_type
  _atom_site_B_iso_or_equiv
  _atom_site_type_symbol
  Cu1      1.0000 -0.00730  0.00340  -0.00000  Biso   1.000  Cu
  Cu2      1.0000 0.33859  0.00309  -0.00048  Biso   1.000  Cu
  Cu3      1.0000 0.66445  0.00561  -0.00695  Biso   1.000  Cu
  Cu4      1.0000 -0.00922  0.35139  -0.00556  Biso   1.000  Cu
  Cu5      1.0000 0.33331  0.34299  -0.00845  Biso   1.000  Cu
  Cu6      1.0000 0.65826  0.34275  -0.00830  Biso   1.000  Cu
  C1       1.0000 0.04569  0.30317  0.20451  Biso   1.000  C
  H1       1.0000 0.08559  0.19377  0.13238  Biso   1.000  H
  O1       1.0000 0.21435  0.23881  0.24734  Biso   1.000  O
  H2       1.0000 -0.05534  0.26863  0.23354  Biso   1.000  H
  H3       1.0000 -0.01950  0.45320  0.18316  Biso   1.000  H
  O2       1.0000 0.10401  0.13177  0.07202  Biso   1.000  O
  Cu7      1.0000 -0.00375  0.67491  -0.00742  Biso   1.000  Cu
  Cu8      1.0000 0.33221  0.66950  -0.00751  Biso   1.000  Cu
  Cu9      1.0000 0.66300  0.67494  -0.00753  Biso   1.000  Cu
  Cu10     1.0000 0.10976  0.11415  -0.12465  Biso   1.000  Cu
  Cu11     1.0000 0.44164  0.11352  -0.12516  Biso   1.000  Cu
  Cu12     1.0000 0.77891  0.11347  -0.12503  Biso   1.000  Cu
  Cu13     1.0000 0.10861  0.44773  -0.12603  Biso   1.000  Cu
  Cu14     1.0000 0.44252  0.44882  -0.12765  Biso   1.000  Cu
  Cu15     1.0000 0.77739  0.44776  -0.12604  Biso   1.000  Cu
  Cu16     1.0000 0.10806  0.78494  -0.12510  Biso   1.000  Cu
  Cu17     1.0000 0.44080  0.78498  -0.12513  Biso   1.000  Cu
  Cu18     1.0000 0.77620  0.78154  -0.12681  Biso   1.000  Cu
  Cu19     1.0000 0.22222  0.22222  -0.24581  Biso   1.000  Cu
  Cu20     1.0000 0.55556  0.22222  -0.24581  Biso   1.000  Cu
  Cu21     1.0000 0.88889  0.22222  -0.24581  Biso   1.000  Cu
  Cu22     1.0000 0.22222  0.55556  -0.24581  Biso   1.000  Cu
  Cu23     1.0000 0.55556  0.55556  -0.24581  Biso   1.000  Cu
  Cu24     1.0000 0.88889  0.55556  -0.24581  Biso   1.000  Cu
  Cu25     1.0000 0.22222  0.88889  -0.24581  Biso   1.000  Cu
  Cu26     1.0000 0.55556  0.88889  -0.24581  Biso   1.000  Cu
  Cu27     1.0000 0.88889  0.88889  -0.24581  Biso   1.000  Cu
  Cu28     1.0000 0.00000  0.00000  -0.36872  Biso   1.000  Cu
  Cu29     1.0000 0.33333  0.00000  -0.36872  Biso   1.000  Cu
  Cu30     1.0000 0.66667  0.00000  -0.36872  Biso   1.000  Cu
  Cu31     1.0000 0.00000  0.33333  -0.36872  Biso   1.000  Cu
  Cu32     1.0000 0.33333  0.33333  -0.36872  Biso   1.000  Cu
  Cu33     1.0000 0.66667  0.33333  -0.36872  Biso   1.000  Cu
  Cu34     1.0000 0.00000  0.66667  -0.36872  Biso   1.000  Cu
  Cu35     1.0000 0.33333  0.66667  -0.36872  Biso   1.000  Cu
  Cu36     1.0000 0.66667  0.66667  -0.36872  Biso   1.000  Cu
  H4       1.0000 0.28703  0.29980  0.22900  Biso   1.000  H
