data_image0
_cell_length_a       7.86883
_cell_length_b       7.86883
_cell_length_c       17.4249
_cell_angle_alpha    90
_cell_angle_beta     90
_cell_angle_gamma    60

loop_
  _atom_site_label
  _atom_site_occupancy
  _atom_site_fract_x
  _atom_site_fract_y
  _atom_site_fract_z
  _atom_site_thermal_displace_type
  _atom_site_B_iso_or_equiv
  _atom_site_type_symbol
  Cu1      1.0000 -0.00874  0.00387  -0.00058  Biso   1.000  Cu
  Cu2      1.0000 0.34083  0.00361  -0.00131  Biso   1.000  Cu
  Cu3      1.0000 0.66427  0.00709  -0.00720  Biso   1.000  Cu
  Cu4      1.0000 -0.00927  0.35302  -0.00631  Biso   1.000  Cu
  Cu5      1.0000 0.33298  0.34441  -0.00866  Biso   1.000  Cu
  Cu6      1.0000 0.65836  0.34415  -0.00849  Biso   1.000  Cu
  C1       1.0000 0.04771  0.30410  0.20513  Biso   1.000  C
  H1       1.0000 0.08746  0.18609  0.12786  Biso   1.000  H
  H2       1.0000 0.19321  0.23929  0.22970  Biso   1.000  H
  H3       1.0000 -0.05449  0.27109  0.23366  Biso   1.000  H
  H4       1.0000 -0.01299  0.45256  0.18386  Biso   1.000  H
  O1       1.0000 0.10538  0.13026  0.07047  Biso   1.000  O
  Cu7      1.0000 -0.00395  0.67612  -0.00775  Biso   1.000  Cu
  Cu8      1.0000 0.33219  0.67092  -0.00796  Biso   1.000  Cu
  Cu9      1.0000 0.66316  0.67589  -0.00783  Biso   1.000  Cu
  Cu10     1.0000 0.10962  0.11490  -0.12486  Biso   1.000  Cu
  Cu11     1.0000 0.44144  0.11453  -0.12535  Biso   1.000  Cu
  Cu12     1.0000 0.77869  0.11452  -0.12521  Biso   1.000  Cu
  Cu13     1.0000 0.10849  0.44865  -0.12627  Biso   1.000  Cu
  Cu14     1.0000 0.44239  0.44952  -0.12769  Biso   1.000  Cu
  Cu15     1.0000 0.77715  0.44857  -0.12626  Biso   1.000  Cu
  Cu16     1.0000 0.10795  0.78589  -0.12523  Biso   1.000  Cu
  Cu17     1.0000 0.44065  0.78580  -0.12532  Biso   1.000  Cu
  Cu18     1.0000 0.77598  0.78239  -0.12699  Biso   1.000  Cu
  Cu19     1.0000 0.22222  0.22222  -0.24581  Biso   1.000  Cu
  Cu20     1.0000 0.55556  0.22222  -0.24581  Biso   1.000  Cu
  Cu21     1.0000 0.88889  0.22222  -0.24581  Biso   1.000  Cu
  Cu22     1.0000 0.22222  0.55556  -0.24581  Biso   1.000  Cu
  Cu23     1.0000 0.55556  0.55556  -0.24581  Biso   1.000  Cu
  Cu24     1.0000 0.88889  0.55556  -0.24581  Biso   1.000  Cu
  Cu25     1.0000 0.22222  0.88889  -0.24581  Biso   1.000  Cu
  Cu26     1.0000 0.55556  0.88889  -0.24581  Biso   1.000  Cu
  Cu27     1.0000 0.88889  0.88889  -0.24581  Biso   1.000  Cu
  Cu28     1.0000 0.00000  0.00000  -0.36872  Biso   1.000  Cu
  Cu29     1.0000 0.33333  0.00000  -0.36872  Biso   1.000  Cu
  Cu30     1.0000 0.66667  0.00000  -0.36872  Biso   1.000  Cu
  Cu31     1.0000 0.00000  0.33333  -0.36872  Biso   1.000  Cu
  Cu32     1.0000 0.33333  0.33333  -0.36872  Biso   1.000  Cu
  Cu33     1.0000 0.66667  0.33333  -0.36872  Biso   1.000  Cu
  Cu34     1.0000 0.00000  0.66667  -0.36872  Biso   1.000  Cu
  Cu35     1.0000 0.33333  0.66667  -0.36872  Biso   1.000  Cu
  Cu36     1.0000 0.66667  0.66667  -0.36872  Biso   1.000  Cu
