data_image0
_cell_length_a       6.567
_cell_length_b       6.567
_cell_length_c       28.134
_cell_angle_alpha    90
_cell_angle_beta     90
_cell_angle_gamma    90

_symmetry_space_group_name_H-M    "P 1"
_symmetry_int_tables_number       1

loop_
  _symmetry_equiv_pos_as_xyz
  'x, y, z'

loop_
  _atom_site_label
  _atom_site_occupancy
  _atom_site_fract_x
  _atom_site_fract_y
  _atom_site_fract_z
  _atom_site_thermal_displace_type
  _atom_site_B_iso_or_equiv
  _atom_site_type_symbol
  Ir1      1.0000 0.40290  0.62500  0.05835  Biso   1.000  Ir
  O1       1.0000 0.40290  0.87500  0.01302  Biso   1.000  O
  O2       1.0000 0.40290  0.87500  0.10368  Biso   1.000  O
  O3       1.0000 0.70870  0.62500  0.05835  Biso   1.000  O
  O4       1.0000 0.09710  0.62500  0.05835  Biso   1.000  O
  O5       1.0000 0.20870  0.62500  0.17506  Biso   1.000  O
  Ir2      1.0000 0.90290  0.87500  0.05835  Biso   1.000  Ir
  Ir3      1.0000 0.90290  0.62500  0.17506  Biso   1.000  Ir
  O6       1.0000 0.90290  0.87500  0.12973  Biso   1.000  O
  O7       1.0000 0.90290  0.87500  0.22039  Biso   1.000  O
  O8       1.0000 0.59710  0.62500  0.17506  Biso   1.000  O
  Ir4      1.0000 0.40290  0.87500  0.17506  Biso   1.000  Ir
  Ir5      1.0000 0.40290  0.12500  0.05835  Biso   1.000  Ir
  O9       1.0000 0.40290  0.37500  0.01302  Biso   1.000  O
  O10      1.0000 0.40290  0.37500  0.10368  Biso   1.000  O
  O11      1.0000 0.70870  0.12500  0.05835  Biso   1.000  O
  O12      1.0000 0.09710  0.12500  0.05835  Biso   1.000  O
  O13      1.0000 0.20870  0.12500  0.17506  Biso   1.000  O
  Ir6      1.0000 0.90290  0.37500  0.05835  Biso   1.000  Ir
  Ir7      1.0000 0.90290  0.12500  0.17506  Biso   1.000  Ir
  O14      1.0000 0.90290  0.37500  0.12973  Biso   1.000  O
  O15      1.0000 0.90290  0.37500  0.22039  Biso   1.000  O
  O16      1.0000 0.59710  0.12500  0.17506  Biso   1.000  O
  Ir8      1.0000 0.40290  0.37500  0.17506  Biso   1.000  Ir
  Ir9      1.0000 0.40183  0.62502  0.29001  Biso   1.000  Ir
  O17      1.0000 0.40139  0.87489  0.24633  Biso   1.000  O
  O18      1.0000 0.40202  0.87530  0.33381  Biso   1.000  O
  O19      1.0000 0.71123  0.62500  0.29040  Biso   1.000  O
  O20      1.0000 0.09243  0.62499  0.29055  Biso   1.000  O
  O21      1.0000 0.21086  0.62551  0.40119  Biso   1.000  O
  Ir10     1.0000 0.90180  0.87501  0.29073  Biso   1.000  Ir
  Ir11     1.0000 0.90041  0.62551  0.40462  Biso   1.000  Ir
  O22      1.0000 0.90034  0.87550  0.36071  Biso   1.000  O
  O23      1.0000 0.90091  0.87516  0.44556  Biso   1.000  O
  O24      1.0000 0.59000  0.62618  0.40219  Biso   1.000  O
  Ir12     1.0000 0.40037  0.87571  0.40675  Biso   1.000  Ir
  Ir13     1.0000 0.40182  0.12503  0.28999  Biso   1.000  Ir
  O25      1.0000 0.40142  0.37500  0.24633  Biso   1.000  O
  O26      1.0000 0.40171  0.37506  0.33381  Biso   1.000  O
  O27      1.0000 0.71123  0.12500  0.29042  Biso   1.000  O
  O28      1.0000 0.09241  0.12502  0.29055  Biso   1.000  O
  O29      1.0000 0.21108  0.12615  0.40182  Biso   1.000  O
  Ir14     1.0000 0.90177  0.37497  0.29073  Biso   1.000  Ir
  Ir15     1.0000 0.90042  0.12551  0.40472  Biso   1.000  Ir
  O30      1.0000 0.90012  0.37519  0.36071  Biso   1.000  O
  O31      1.0000 0.90094  0.37579  0.44556  Biso   1.000  O
  O32      1.0000 0.58965  0.12553  0.40271  Biso   1.000  O
  Ir16     1.0000 0.40020  0.37596  0.40675  Biso   1.000  Ir
  O33      1.0000 0.39830  0.38192  0.47014  Biso   1.000  O
  O34      1.0000 0.39378  0.87520  0.47013  Biso   1.000  O
