data_image0
_cell_length_a       8.52877
_cell_length_b       8.52877
_cell_length_c       24.1559
_cell_angle_alpha    90
_cell_angle_beta     90
_cell_angle_gamma    60

_symmetry_space_group_name_H-M    "P 1"
_symmetry_int_tables_number       1

loop_
  _symmetry_equiv_pos_as_xyz
  'x, y, z'

loop_
  _atom_site_label
  _atom_site_occupancy
  _atom_site_fract_x
  _atom_site_fract_y
  _atom_site_fract_z
  _atom_site_thermal_displace_type
  _atom_site_B_iso_or_equiv
  _atom_site_type_symbol
  Pd1      1.0000 0.00004  0.00004  0.33167  Biso   1.000  Pd
  Pd2      1.0000 0.33326  0.00004  0.33167  Biso   1.000  Pd
  Pd3      1.0000 0.66665  0.00003  0.33159  Biso   1.000  Pd
  Pd4      1.0000 0.00004  0.33326  0.33167  Biso   1.000  Pd
  Pd5      1.0000 0.33349  0.33349  0.33153  Biso   1.000  Pd
  Pd6      1.0000 0.66636  0.33349  0.33153  Biso   1.000  Pd
  Pd7      1.0000 0.00003  0.66665  0.33159  Biso   1.000  Pd
  Pd8      1.0000 0.33349  0.66636  0.33153  Biso   1.000  Pd
  Pd9      1.0000 0.66665  0.66666  0.33159  Biso   1.000  Pd
  Pd10     1.0000 0.11110  0.11111  0.42676  Biso   1.000  Pd
  Pd11     1.0000 0.44491  0.11057  0.42684  Biso   1.000  Pd
  Pd12     1.0000 0.77790  0.11058  0.42685  Biso   1.000  Pd
  Pd13     1.0000 0.11058  0.44489  0.42685  Biso   1.000  Pd
  Pd14     1.0000 0.44446  0.44443  0.42664  Biso   1.000  Pd
  Pd15     1.0000 0.77790  0.44485  0.42686  Biso   1.000  Pd
  Pd16     1.0000 0.11059  0.77786  0.42684  Biso   1.000  Pd
  Pd17     1.0000 0.44489  0.77786  0.42684  Biso   1.000  Pd
  Pd18     1.0000 0.77784  0.77770  0.42681  Biso   1.000  Pd
  Pd19     1.0000 0.88946  0.22176  0.52113  Biso   1.000  Pd
  Pd20     1.0000 0.22224  0.22186  0.52103  Biso   1.000  Pd
  Pd21     1.0000 0.55607  0.22155  0.52098  Biso   1.000  Pd
  Pd22     1.0000 0.88980  0.55397  0.52258  Biso   1.000  Pd
  Pd23     1.0000 0.22185  0.55575  0.52098  Biso   1.000  Pd
  Pd24     1.0000 0.55596  0.55564  0.52099  Biso   1.000  Pd
  Pd25     1.0000 0.88968  0.88925  0.52257  Biso   1.000  Pd
  Pd26     1.0000 0.22211  0.88912  0.52105  Biso   1.000  Pd
  Pd27     1.0000 0.55479  0.88918  0.52252  Biso   1.000  Pd
  Pd28     1.0000 0.99652  0.99518  0.61855  Biso   1.000  Pd
  Pd29     1.0000 0.34303  0.99479  0.61809  Biso   1.000  Pd
  Pd30     1.0000 0.66750  0.99928  0.61678  Biso   1.000  Pd
  Pd31     1.0000 0.99667  0.34059  0.61846  Biso   1.000  Pd
  Pd32     1.0000 0.33537  0.33447  0.61547  Biso   1.000  Pd
  Pd33     1.0000 0.66403  0.33444  0.61563  Biso   1.000  Pd
  Pd34     1.0000 0.00023  0.66620  0.61680  Biso   1.000  Pd
  Pd35     1.0000 0.33538  0.66306  0.61559  Biso   1.000  Pd
  Pd36     1.0000 0.66761  0.66597  0.61675  Biso   1.000  Pd
  O1       1.0000 0.11294  0.10980  0.66334  Biso   1.000  O
