data_image0
_cell_length_a       8.5311
_cell_length_b       8.5311
_cell_length_c       17.9656
_cell_angle_alpha    90
_cell_angle_beta     90
_cell_angle_gamma    60

loop_
  _atom_site_label
  _atom_site_occupancy
  _atom_site_fract_x
  _atom_site_fract_y
  _atom_site_fract_z
  _atom_site_thermal_displace_type
  _atom_site_B_iso_or_equiv
  _atom_site_type_symbol
  Pd1      1.0000 -0.00018  -0.00095  -0.00082  Biso   1.000  Pd
  Pd2      1.0000 0.33820  -0.00210  0.00087  Biso   1.000  Pd
  Pd3      1.0000 0.66747  -0.00066  -0.00368  Biso   1.000  Pd
  Pd4      1.0000 -0.00220  0.33852  0.00082  Biso   1.000  Pd
  Pd5      1.0000 0.33466  0.33476  -0.00421  Biso   1.000  Pd
  Pd6      1.0000 0.66336  0.33476  -0.00419  Biso   1.000  Pd
  C1       1.0000 0.01275  0.05118  0.21136  Biso   1.000  C
  H1       1.0000 0.07536  0.09925  0.13811  Biso   1.000  H
  H2       1.0000 0.14140  -0.03745  0.23846  Biso   1.000  H
  H3       1.0000 -0.05452  -0.01245  0.18416  Biso   1.000  H
  O1       1.0000 -0.10771  0.20151  0.25018  Biso   1.000  O
  O2       1.0000 0.10668  0.11376  0.08103  Biso   1.000  O
  Pd7      1.0000 -0.00081  0.66771  -0.00366  Biso   1.000  Pd
  Pd8      1.0000 0.33466  0.66348  -0.00424  Biso   1.000  Pd
  Pd9      1.0000 0.66662  0.66708  -0.00349  Biso   1.000  Pd
  Pd10     1.0000 0.11149  0.11166  -0.13141  Biso   1.000  Pd
  Pd11     1.0000 0.44439  0.10975  -0.13068  Biso   1.000  Pd
  Pd12     1.0000 0.77910  0.10975  -0.13084  Biso   1.000  Pd
  Pd13     1.0000 0.10954  0.44457  -0.13062  Biso   1.000  Pd
  Pd14     1.0000 0.44427  0.44432  -0.13263  Biso   1.000  Pd
  Pd15     1.0000 0.77879  0.44431  -0.13073  Biso   1.000  Pd
  Pd16     1.0000 0.10953  0.77926  -0.13081  Biso   1.000  Pd
  Pd17     1.0000 0.44413  0.77898  -0.13074  Biso   1.000  Pd
  Pd18     1.0000 0.77748  0.77764  -0.13200  Biso   1.000  Pd
  Pd19     1.0000 0.22222  0.22222  -0.25848  Biso   1.000  Pd
  Pd20     1.0000 0.55556  0.22222  -0.25848  Biso   1.000  Pd
  Pd21     1.0000 0.88889  0.22222  -0.25848  Biso   1.000  Pd
  Pd22     1.0000 0.22222  0.55556  -0.25848  Biso   1.000  Pd
  Pd23     1.0000 0.55556  0.55556  -0.25848  Biso   1.000  Pd
  Pd24     1.0000 0.88889  0.55556  -0.25848  Biso   1.000  Pd
  Pd25     1.0000 0.22222  0.88889  -0.25848  Biso   1.000  Pd
  Pd26     1.0000 0.55556  0.88889  -0.25848  Biso   1.000  Pd
  Pd27     1.0000 0.88889  0.88889  -0.25848  Biso   1.000  Pd
  Pd28     1.0000 0.00000  0.00000  -0.38772  Biso   1.000  Pd
  Pd29     1.0000 0.33333  0.00000  -0.38772  Biso   1.000  Pd
  Pd30     1.0000 0.66667  0.00000  -0.38772  Biso   1.000  Pd
  Pd31     1.0000 0.00000  0.33333  -0.38772  Biso   1.000  Pd
  Pd32     1.0000 0.33333  0.33333  -0.38772  Biso   1.000  Pd
  Pd33     1.0000 0.66667  0.33333  -0.38772  Biso   1.000  Pd
  Pd34     1.0000 0.00000  0.66667  -0.38772  Biso   1.000  Pd
  Pd35     1.0000 0.33333  0.66667  -0.38772  Biso   1.000  Pd
  Pd36     1.0000 0.66667  0.66667  -0.38772  Biso   1.000  Pd
  H4       1.0000 -0.04471  0.23763  0.28465  Biso   1.000  H
