data_image0
_cell_length_a       6.54583
_cell_length_b       6.615
_cell_length_c       28.0917
_cell_angle_alpha    90
_cell_angle_beta     90
_cell_angle_gamma    90

_symmetry_space_group_name_H-M    "P 1"
_symmetry_int_tables_number       1

loop_
  _symmetry_equiv_pos_as_xyz
  'x, y, z'

loop_
  _atom_site_label
  _atom_site_occupancy
  _atom_site_fract_x
  _atom_site_fract_y
  _atom_site_fract_z
  _atom_site_thermal_displace_type
  _atom_site_B_iso_or_equiv
  _atom_site_type_symbol
  Pt1      1.0000 0.40290  0.62500  0.05825  Biso   1.000  Pt
  O1       1.0000 0.40290  0.87500  0.01300  Biso   1.000  O
  O2       1.0000 0.40290  0.87500  0.10351  Biso   1.000  O
  O3       1.0000 0.70870  0.62500  0.05825  Biso   1.000  O
  O4       1.0000 0.09710  0.62500  0.05825  Biso   1.000  O
  O5       1.0000 0.20870  0.62500  0.17476  Biso   1.000  O
  Pt2      1.0000 0.90290  0.87500  0.05825  Biso   1.000  Pt
  Pt3      1.0000 0.90290  0.62500  0.17476  Biso   1.000  Pt
  O6       1.0000 0.90290  0.87500  0.12951  Biso   1.000  O
  O7       1.0000 0.90290  0.87500  0.22001  Biso   1.000  O
  O8       1.0000 0.59710  0.62500  0.17476  Biso   1.000  O
  Pt4      1.0000 0.40290  0.87500  0.17476  Biso   1.000  Pt
  Pt5      1.0000 0.40290  0.12500  0.05825  Biso   1.000  Pt
  O9       1.0000 0.40290  0.37500  0.01300  Biso   1.000  O
  O10      1.0000 0.40290  0.37500  0.10351  Biso   1.000  O
  O11      1.0000 0.70870  0.12500  0.05825  Biso   1.000  O
  O12      1.0000 0.09710  0.12500  0.05825  Biso   1.000  O
  O13      1.0000 0.20870  0.12500  0.17476  Biso   1.000  O
  Pt6      1.0000 0.90290  0.37500  0.05825  Biso   1.000  Pt
  Pt7      1.0000 0.90290  0.12500  0.17476  Biso   1.000  Pt
  O14      1.0000 0.90290  0.37500  0.12951  Biso   1.000  O
  O15      1.0000 0.90290  0.37500  0.22001  Biso   1.000  O
  O16      1.0000 0.59710  0.12500  0.17476  Biso   1.000  O
  Pt8      1.0000 0.40290  0.37500  0.17476  Biso   1.000  Pt
  Pt9      1.0000 0.40306  0.62540  0.29096  Biso   1.000  Pt
  O17      1.0000 0.37001  0.87482  0.24679  Biso   1.000  O
  O18      1.0000 0.42606  0.87366  0.33603  Biso   1.000  O
  O19      1.0000 0.71354  0.62595  0.28284  Biso   1.000  O
  O20      1.0000 0.09264  0.62470  0.30128  Biso   1.000  O
  O21      1.0000 0.20997  0.62632  0.41358  Biso   1.000  O
  Pt10     1.0000 0.90226  0.87532  0.29239  Biso   1.000  Pt
  Pt11     1.0000 0.89830  0.62744  0.40954  Biso   1.000  Pt
  O22      1.0000 0.88594  0.87626  0.36480  Biso   1.000  O
  O23      1.0000 0.90083  0.87929  0.45278  Biso   1.000  O
  O24      1.0000 0.58725  0.62546  0.41649  Biso   1.000  O
  Pt12     1.0000 0.39917  0.87979  0.41049  Biso   1.000  Pt
  Pt13     1.0000 0.40320  0.12425  0.29115  Biso   1.000  Pt
  O25      1.0000 0.36793  0.37441  0.24736  Biso   1.000  O
  O26      1.0000 0.44294  0.37608  0.33424  Biso   1.000  O
  O27      1.0000 0.71342  0.12458  0.28276  Biso   1.000  O
  O28      1.0000 0.09222  0.12558  0.30112  Biso   1.000  O
  O29      1.0000 0.20830  0.13142  0.40736  Biso   1.000  O
  Pt14     1.0000 0.90196  0.37547  0.29229  Biso   1.000  Pt
  Pt15     1.0000 0.89869  0.12794  0.40899  Biso   1.000  Pt
  O30      1.0000 0.89080  0.37792  0.36503  Biso   1.000  O
  O31      1.0000 0.90283  0.37609  0.45321  Biso   1.000  O
  O32      1.0000 0.58874  0.13126  0.40942  Biso   1.000  O
  Pt16     1.0000 0.39806  0.38054  0.40647  Biso   1.000  Pt
  O33      1.0000 0.39217  0.89647  0.47722  Biso   1.000  O
