data_image0
_cell_length_a       9.61314
_cell_length_b       9.61293
_cell_length_c       26.4588
_cell_angle_alpha    90
_cell_angle_beta     90
_cell_angle_gamma    120

_symmetry_space_group_name_H-M    "P 1"
_symmetry_int_tables_number       1

loop_
  _symmetry_equiv_pos_as_xyz
  'x, y, z'

loop_
  _atom_site_label
  _atom_site_occupancy
  _atom_site_fract_x
  _atom_site_fract_y
  _atom_site_fract_z
  _atom_site_thermal_displace_type
  _atom_site_B_iso_or_equiv
  _atom_site_type_symbol
  Al1      1.0000 0.66663  0.83336  0.03240  Biso   1.000  Al
  Al2      1.0000 0.16664  0.83336  0.03241  Biso   1.000  Al
  Al3      1.0000 0.66663  0.33336  0.03241  Biso   1.000  Al
  Al4      1.0000 0.16664  0.33337  0.03240  Biso   1.000  Al
  O1       1.0000 0.68009  0.51349  0.04120  Biso   1.000  O
  O2       1.0000 0.18009  0.51349  0.04120  Biso   1.000  O
  O3       1.0000 0.18009  0.01348  0.04120  Biso   1.000  O
  O4       1.0000 0.68009  0.01348  0.04120  Biso   1.000  O
  O5       1.0000 0.48652  0.66670  0.04120  Biso   1.000  O
  O6       1.0000 0.98652  0.66670  0.04120  Biso   1.000  O
  O7       1.0000 0.48651  0.16670  0.04120  Biso   1.000  O
  O8       1.0000 0.98652  0.16670  0.04120  Biso   1.000  O
  O9       1.0000 0.83330  0.81992  0.04121  Biso   1.000  O
  O10      1.0000 0.33330  0.81992  0.04121  Biso   1.000  O
  O11      1.0000 0.33330  0.31991  0.04121  Biso   1.000  O
  O12      1.0000 0.83330  0.31991  0.04121  Biso   1.000  O
  Al5      1.0000 0.49997  0.50003  0.07295  Biso   1.000  Al
  Al6      1.0000 0.99997  0.50003  0.07295  Biso   1.000  Al
  Al7      1.0000 0.49997  0.00002  0.07295  Biso   1.000  Al
  Al8      1.0000 0.99997  0.00002  0.07295  Biso   1.000  Al
  Al9      1.0000 0.83330  0.66670  0.09197  Biso   1.000  Al
  Al10     1.0000 0.33330  0.66670  0.09197  Biso   1.000  Al
  Al11     1.0000 0.33330  0.16669  0.09197  Biso   1.000  Al
  Al12     1.0000 0.83330  0.16669  0.09197  Biso   1.000  Al
  O13      1.0000 0.34676  0.50004  0.12371  Biso   1.000  O
  O14      1.0000 0.84676  0.50004  0.12371  Biso   1.000  O
  O15      1.0000 0.34676  0.00003  0.12371  Biso   1.000  O
  O16      1.0000 0.84676  0.00003  0.12371  Biso   1.000  O
  O17      1.0000 0.65319  0.65325  0.12371  Biso   1.000  O
  O18      1.0000 0.15319  0.65325  0.12371  Biso   1.000  O
  O19      1.0000 0.15319  0.15324  0.12371  Biso   1.000  O
  O20      1.0000 0.65319  0.15324  0.12371  Biso   1.000  O
  O21      1.0000 0.49997  0.84682  0.12371  Biso   1.000  O
  O22      1.0000 0.99997  0.84682  0.12371  Biso   1.000  O
  O23      1.0000 0.49997  0.34681  0.12371  Biso   1.000  O
  O24      1.0000 0.99997  0.34681  0.12371  Biso   1.000  O
  Al13     1.0000 0.66673  0.83332  0.15728  Biso   1.000  Al
  Al14     1.0000 0.16672  0.83336  0.15732  Biso   1.000  Al
  Al15     1.0000 0.66667  0.33325  0.15731  Biso   1.000  Al
  Al16     1.0000 0.16678  0.33334  0.15730  Biso   1.000  Al
  Al17     1.0000 0.50008  0.49985  0.17474  Biso   1.000  Al
  Al18     1.0000 0.00012  0.49994  0.17470  Biso   1.000  Al
  Al19     1.0000 0.50008  0.99996  0.17474  Biso   1.000  Al
  Al20     1.0000 0.00022  0.99995  0.17474  Biso   1.000  Al
  O25      1.0000 0.82008  0.83319  0.20664  Biso   1.000  O
  O26      1.0000 0.32000  0.83316  0.20665  Biso   1.000  O
  O27      1.0000 0.32012  0.33326  0.20667  Biso   1.000  O
  O28      1.0000 0.82016  0.33327  0.20665  Biso   1.000  O
  O29      1.0000 0.66687  0.98645  0.20662  Biso   1.000  O
  O30      1.0000 0.16682  0.98646  0.20669  Biso   1.000  O
  O31      1.0000 0.66690  0.48646  0.20664  Biso   1.000  O
  O32      1.0000 0.16673  0.48647  0.20661  Biso   1.000  O
  O33      1.0000 0.51369  0.68006  0.20662  Biso   1.000  O
  O34      1.0000 0.01360  0.67993  0.20664  Biso   1.000  O
  O35      1.0000 0.51364  0.17993  0.20669  Biso   1.000  O
  O36      1.0000 0.01363  0.18004  0.20665  Biso   1.000  O
  Al21     1.0000 0.83358  0.66645  0.23855  Biso   1.000  Al
  Al22     1.0000 0.33351  0.66652  0.23853  Biso   1.000  Al
  Al23     1.0000 0.33360  0.16657  0.23891  Biso   1.000  Al
  Al24     1.0000 0.83362  0.16654  0.23855  Biso   1.000  Al
  Al25     1.0000 0.66695  0.83311  0.25857  Biso   1.000  Al
  Al26     1.0000 0.16704  0.83317  0.25860  Biso   1.000  Al
  Al27     1.0000 0.16703  0.33324  0.25856  Biso   1.000  Al
  Al28     1.0000 0.66707  0.33309  0.25860  Biso   1.000  Al
  O37      1.0000 0.48652  0.82043  0.28928  Biso   1.000  O
  O38      1.0000 0.98603  0.81957  0.28924  Biso   1.000  O
  O39      1.0000 0.48682  0.32012  0.28931  Biso   1.000  O
  O40      1.0000 0.98672  0.32029  0.28946  Biso   1.000  O
  O41      1.0000 0.67987  0.66542  0.28931  Biso   1.000  O
  O42      1.0000 0.17981  0.66567  0.28946  Biso   1.000  O
  O43      1.0000 0.18026  0.16596  0.28933  Biso   1.000  O
  O44      1.0000 0.68069  0.16562  0.28921  Biso   1.000  O
  O45      1.0000 0.33449  0.51438  0.28910  Biso   1.000  O
  O46      1.0000 0.83462  0.51352  0.28946  Biso   1.000  O
  O47      1.0000 0.33430  0.01350  0.28942  Biso   1.000  O
  O48      1.0000 0.83477  0.01356  0.28929  Biso   1.000  O
  Al29     1.0000 0.49982  0.49998  0.32178  Biso   1.000  Al
  Al30     1.0000 0.00041  0.49977  0.32210  Biso   1.000  Al
  Al31     1.0000 0.00038  0.99942  0.32172  Biso   1.000  Al
  Al32     1.0000 0.50099  0.00009  0.32190  Biso   1.000  Al
  Al33     1.0000 0.33415  0.66701  0.33968  Biso   1.000  Al
  Al34     1.0000 0.83351  0.66617  0.33972  Biso   1.000  Al
  Al35     1.0000 0.33414  0.16666  0.34065  Biso   1.000  Al
  Al36     1.0000 0.83392  0.16619  0.33973  Biso   1.000  Al
  O49      1.0000 0.65599  0.49946  0.37285  Biso   1.000  O
  O50      1.0000 0.15623  0.50014  0.37296  Biso   1.000  O
  O51      1.0000 0.15383  0.99848  0.37179  Biso   1.000  O
  O52      1.0000 0.65657  0.99993  0.37290  Biso   1.000  O
  O53      1.0000 0.84488  0.84368  0.37292  Biso   1.000  O
  O54      1.0000 0.34500  0.84438  0.37287  Biso   1.000  O
  O55      1.0000 0.34642  0.34699  0.37156  Biso   1.000  O
  O56      1.0000 0.84518  0.34405  0.37305  Biso   1.000  O
  O57      1.0000 0.50034  0.65563  0.37277  Biso   1.000  O
  O58      1.0000 0.00022  0.65531  0.37319  Biso   1.000  O
  O59      1.0000 0.50215  0.15446  0.37170  Biso   1.000  O
  O60      1.0000 0.00086  0.15534  0.37271  Biso   1.000  O
  Al37     1.0000 0.66703  0.83296  0.41085  Biso   1.000  Al
  Al38     1.0000 0.16896  0.83577  0.41172  Biso   1.000  Al
  Al39     1.0000 0.16881  0.33224  0.41121  Biso   1.000  Al
  Al40     1.0000 0.66463  0.33127  0.41142  Biso   1.000  Al
  Al41     1.0000 0.49897  0.49803  0.42150  Biso   1.000  Al
  Al42     1.0000 0.00043  0.49940  0.42195  Biso   1.000  Al
  Al43     1.0000 0.00169  0.99918  0.42142  Biso   1.000  Al
  Al44     1.0000 0.50015  0.00086  0.42173  Biso   1.000  Al
  O61      1.0000 0.65870  0.66985  0.45490  Biso   1.000  O
  O62      1.0000 0.16102  0.67187  0.45523  Biso   1.000  O
  O63      1.0000 0.16710  0.17011  0.45243  Biso   1.000  O
  O64      1.0000 0.65984  0.17124  0.45517  Biso   1.000  O
  O65      1.0000 0.83072  0.98772  0.45506  Biso   1.000  O
  O66      1.0000 0.32976  0.99351  0.45337  Biso   1.000  O
  O67      1.0000 0.32860  0.48681  0.45491  Biso   1.000  O
  O68      1.0000 0.82780  0.48707  0.45518  Biso   1.000  O
  O69      1.0000 0.51274  0.84126  0.45513  Biso   1.000  O
  O70      1.0000 0.01294  0.84025  0.45535  Biso   1.000  O
  O71      1.0000 0.50575  0.33381  0.45297  Biso   1.000  O
  O72      1.0000 0.01299  0.33887  0.45501  Biso   1.000  O
  Al45     1.0000 0.33490  0.66611  0.46083  Biso   1.000  Al
  Al46     1.0000 0.83341  0.66652  0.46066  Biso   1.000  Al
  Al47     1.0000 0.33450  0.16627  0.47863  Biso   1.000  Al
  Al48     1.0000 0.83326  0.16546  0.46082  Biso   1.000  Al
  C1       1.0000 0.28144  0.04204  0.57856  Biso   1.000  C
  H1       1.0000 0.27845  0.07983  0.61740  Biso   1.000  H
  H2       1.0000 0.36357  0.99311  0.57704  Biso   1.000  H
  H3       1.0000 0.16171  0.94150  0.56855  Biso   1.000  H
  O73      1.0000 0.32992  0.17066  0.54548  Biso   1.000  O
