data_image0
_cell_length_a       9.61314
_cell_length_b       9.61293
_cell_length_c       26.4588
_cell_angle_alpha    90
_cell_angle_beta     90
_cell_angle_gamma    120

_symmetry_space_group_name_H-M    "P 1"
_symmetry_int_tables_number       1

loop_
  _symmetry_equiv_pos_as_xyz
  'x, y, z'

loop_
  _atom_site_label
  _atom_site_occupancy
  _atom_site_fract_x
  _atom_site_fract_y
  _atom_site_fract_z
  _atom_site_thermal_displace_type
  _atom_site_B_iso_or_equiv
  _atom_site_type_symbol
  Al1      1.0000 0.66664  0.83336  0.03224  Biso   1.000  Al
  Al2      1.0000 0.16664  0.83336  0.03224  Biso   1.000  Al
  Al3      1.0000 0.66664  0.33336  0.03225  Biso   1.000  Al
  Al4      1.0000 0.16664  0.33336  0.03225  Biso   1.000  Al
  O1       1.0000 0.68009  0.51349  0.04120  Biso   1.000  O
  O2       1.0000 0.18009  0.51349  0.04120  Biso   1.000  O
  O3       1.0000 0.18009  0.01348  0.04120  Biso   1.000  O
  O4       1.0000 0.68009  0.01348  0.04120  Biso   1.000  O
  O5       1.0000 0.48652  0.66670  0.04120  Biso   1.000  O
  O6       1.0000 0.98652  0.66670  0.04120  Biso   1.000  O
  O7       1.0000 0.48651  0.16670  0.04120  Biso   1.000  O
  O8       1.0000 0.98652  0.16670  0.04120  Biso   1.000  O
  O9       1.0000 0.83330  0.81992  0.04121  Biso   1.000  O
  O10      1.0000 0.33330  0.81992  0.04121  Biso   1.000  O
  O11      1.0000 0.33330  0.31991  0.04121  Biso   1.000  O
  O12      1.0000 0.83330  0.31991  0.04121  Biso   1.000  O
  Al5      1.0000 0.49997  0.50003  0.07295  Biso   1.000  Al
  Al6      1.0000 0.99997  0.50003  0.07295  Biso   1.000  Al
  Al7      1.0000 0.49997  0.00002  0.07295  Biso   1.000  Al
  Al8      1.0000 0.99997  0.00002  0.07295  Biso   1.000  Al
  Al9      1.0000 0.83330  0.66670  0.09197  Biso   1.000  Al
  Al10     1.0000 0.33330  0.66670  0.09197  Biso   1.000  Al
  Al11     1.0000 0.33330  0.16669  0.09197  Biso   1.000  Al
  Al12     1.0000 0.83330  0.16669  0.09197  Biso   1.000  Al
  O13      1.0000 0.34676  0.50004  0.12371  Biso   1.000  O
  O14      1.0000 0.84676  0.50004  0.12371  Biso   1.000  O
  O15      1.0000 0.34676  0.00003  0.12371  Biso   1.000  O
  O16      1.0000 0.84676  0.00003  0.12371  Biso   1.000  O
  O17      1.0000 0.65319  0.65325  0.12371  Biso   1.000  O
  O18      1.0000 0.15319  0.65325  0.12371  Biso   1.000  O
  O19      1.0000 0.15319  0.15324  0.12371  Biso   1.000  O
  O20      1.0000 0.65319  0.15324  0.12371  Biso   1.000  O
  O21      1.0000 0.49997  0.84682  0.12371  Biso   1.000  O
  O22      1.0000 0.99997  0.84682  0.12371  Biso   1.000  O
  O23      1.0000 0.49997  0.34681  0.12371  Biso   1.000  O
  O24      1.0000 0.99997  0.34681  0.12371  Biso   1.000  O
  Al13     1.0000 0.66662  0.83321  0.15667  Biso   1.000  Al
  Al14     1.0000 0.16662  0.83321  0.15667  Biso   1.000  Al
  Al15     1.0000 0.66662  0.33321  0.15667  Biso   1.000  Al
  Al16     1.0000 0.16662  0.33321  0.15667  Biso   1.000  Al
  Al17     1.0000 0.49989  0.49969  0.17435  Biso   1.000  Al
  Al18     1.0000 0.99990  0.49970  0.17435  Biso   1.000  Al
  Al19     1.0000 0.49989  0.99969  0.17435  Biso   1.000  Al
  Al20     1.0000 0.99989  0.99969  0.17435  Biso   1.000  Al
  O25      1.0000 0.81986  0.83304  0.20674  Biso   1.000  O
  O26      1.0000 0.31986  0.83304  0.20674  Biso   1.000  O
  O27      1.0000 0.31985  0.33303  0.20674  Biso   1.000  O
  O28      1.0000 0.81986  0.33304  0.20674  Biso   1.000  O
  O29      1.0000 0.66636  0.98603  0.20673  Biso   1.000  O
  O30      1.0000 0.16635  0.98603  0.20674  Biso   1.000  O
  O31      1.0000 0.66636  0.48603  0.20673  Biso   1.000  O
  O32      1.0000 0.16636  0.48603  0.20673  Biso   1.000  O
  O33      1.0000 0.51338  0.67959  0.20675  Biso   1.000  O
  O34      1.0000 0.01338  0.67959  0.20675  Biso   1.000  O
  O35      1.0000 0.51338  0.17959  0.20675  Biso   1.000  O
  O36      1.0000 0.01338  0.17959  0.20675  Biso   1.000  O
  Al21     1.0000 0.83317  0.66611  0.23823  Biso   1.000  Al
  Al22     1.0000 0.33317  0.66610  0.23823  Biso   1.000  Al
  Al23     1.0000 0.33317  0.16610  0.23823  Biso   1.000  Al
  Al24     1.0000 0.83318  0.16611  0.23823  Biso   1.000  Al
  Al25     1.0000 0.66650  0.83259  0.25815  Biso   1.000  Al
  Al26     1.0000 0.16649  0.83258  0.25815  Biso   1.000  Al
  Al27     1.0000 0.16650  0.33257  0.25815  Biso   1.000  Al
  Al28     1.0000 0.66650  0.33258  0.25814  Biso   1.000  Al
  O37      1.0000 0.48613  0.81947  0.28949  Biso   1.000  O
  O38      1.0000 0.98613  0.81947  0.28950  Biso   1.000  O
  O39      1.0000 0.48612  0.31946  0.28949  Biso   1.000  O
  O40      1.0000 0.98613  0.31946  0.28949  Biso   1.000  O
  O41      1.0000 0.67951  0.66517  0.28948  Biso   1.000  O
  O42      1.0000 0.17950  0.66516  0.28948  Biso   1.000  O
  O43      1.0000 0.17949  0.16515  0.28949  Biso   1.000  O
  O44      1.0000 0.67950  0.16516  0.28948  Biso   1.000  O
  O45      1.0000 0.33384  0.51285  0.28949  Biso   1.000  O
  O46      1.0000 0.83384  0.51285  0.28950  Biso   1.000  O
  O47      1.0000 0.33383  0.01284  0.28950  Biso   1.000  O
  O48      1.0000 0.83384  0.01284  0.28950  Biso   1.000  O
  Al29     1.0000 0.49982  0.49910  0.32184  Biso   1.000  Al
  Al30     1.0000 0.99983  0.49909  0.32184  Biso   1.000  Al
  Al31     1.0000 0.99982  0.99909  0.32186  Biso   1.000  Al
  Al32     1.0000 0.49982  0.99910  0.32184  Biso   1.000  Al
  Al33     1.0000 0.33317  0.66565  0.33944  Biso   1.000  Al
  Al34     1.0000 0.83317  0.66564  0.33945  Biso   1.000  Al
  Al35     1.0000 0.33315  0.16563  0.33945  Biso   1.000  Al
  Al36     1.0000 0.83317  0.16564  0.33944  Biso   1.000  Al
  O49      1.0000 0.65555  0.49922  0.37291  Biso   1.000  O
  O50      1.0000 0.15557  0.49923  0.37291  Biso   1.000  O
  O51      1.0000 0.15556  0.99923  0.37293  Biso   1.000  O
  O52      1.0000 0.65557  0.99923  0.37291  Biso   1.000  O
  O53      1.0000 0.84446  0.84321  0.37294  Biso   1.000  O
  O54      1.0000 0.34445  0.84322  0.37293  Biso   1.000  O
  O55      1.0000 0.34444  0.34322  0.37292  Biso   1.000  O
  O56      1.0000 0.84446  0.34323  0.37292  Biso   1.000  O
  O57      1.0000 0.49954  0.65431  0.37291  Biso   1.000  O
  O58      1.0000 0.99955  0.65432  0.37292  Biso   1.000  O
  O59      1.0000 0.49954  0.15430  0.37291  Biso   1.000  O
  O60      1.0000 0.99953  0.15431  0.37293  Biso   1.000  O
  Al37     1.0000 0.66656  0.83220  0.41126  Biso   1.000  Al
  Al38     1.0000 0.16656  0.83221  0.41128  Biso   1.000  Al
  Al39     1.0000 0.16657  0.33221  0.41127  Biso   1.000  Al
  Al40     1.0000 0.66656  0.33221  0.41125  Biso   1.000  Al
  Al41     1.0000 0.49990  0.49883  0.42166  Biso   1.000  Al
  Al42     1.0000 0.99990  0.49885  0.42166  Biso   1.000  Al
  Al43     1.0000 0.99990  0.99884  0.42169  Biso   1.000  Al
  Al44     1.0000 0.49989  0.99884  0.42166  Biso   1.000  Al
  O61      1.0000 0.65927  0.67018  0.45494  Biso   1.000  O
  O62      1.0000 0.15929  0.67019  0.45495  Biso   1.000  O
  O63      1.0000 0.15929  0.17021  0.45496  Biso   1.000  O
  O64      1.0000 0.65928  0.17021  0.45493  Biso   1.000  O
  O65      1.0000 0.82853  0.98683  0.45497  Biso   1.000  O
  O66      1.0000 0.32855  0.98683  0.45496  Biso   1.000  O
  O67      1.0000 0.32855  0.48683  0.45496  Biso   1.000  O
  O68      1.0000 0.82854  0.48685  0.45495  Biso   1.000  O
  O69      1.0000 0.51189  0.83945  0.45494  Biso   1.000  O
  O70      1.0000 0.01190  0.83946  0.45497  Biso   1.000  O
  O71      1.0000 0.51189  0.33944  0.45493  Biso   1.000  O
  O72      1.0000 0.01189  0.33946  0.45494  Biso   1.000  O
  Al45     1.0000 0.33324  0.66548  0.46086  Biso   1.000  Al
  Al46     1.0000 0.83323  0.66550  0.46088  Biso   1.000  Al
  Al47     1.0000 0.33324  0.16549  0.46088  Biso   1.000  Al
  Al48     1.0000 0.83323  0.16550  0.46085  Biso   1.000  Al
