data_image0
_cell_length_a       9.61314
_cell_length_b       9.61293
_cell_length_c       26.4588
_cell_angle_alpha    90
_cell_angle_beta     90
_cell_angle_gamma    120

_symmetry_space_group_name_H-M    "P 1"
_symmetry_int_tables_number       1

loop_
  _symmetry_equiv_pos_as_xyz
  'x, y, z'

loop_
  _atom_site_label
  _atom_site_occupancy
  _atom_site_fract_x
  _atom_site_fract_y
  _atom_site_fract_z
  _atom_site_thermal_displace_type
  _atom_site_B_iso_or_equiv
  _atom_site_type_symbol
  Al1      1.0000 0.66663  0.83336  0.03201  Biso   1.000  Al
  Al2      1.0000 0.16664  0.83336  0.03200  Biso   1.000  Al
  Al3      1.0000 0.66664  0.33337  0.03202  Biso   1.000  Al
  Al4      1.0000 0.16663  0.33336  0.03201  Biso   1.000  Al
  O1       1.0000 0.68009  0.51349  0.04120  Biso   1.000  O
  O2       1.0000 0.18009  0.51349  0.04120  Biso   1.000  O
  O3       1.0000 0.18009  0.01348  0.04120  Biso   1.000  O
  O4       1.0000 0.68009  0.01348  0.04120  Biso   1.000  O
  O5       1.0000 0.48652  0.66670  0.04120  Biso   1.000  O
  O6       1.0000 0.98652  0.66670  0.04120  Biso   1.000  O
  O7       1.0000 0.48651  0.16670  0.04120  Biso   1.000  O
  O8       1.0000 0.98652  0.16670  0.04120  Biso   1.000  O
  O9       1.0000 0.83330  0.81992  0.04121  Biso   1.000  O
  O10      1.0000 0.33330  0.81992  0.04121  Biso   1.000  O
  O11      1.0000 0.33330  0.31991  0.04121  Biso   1.000  O
  O12      1.0000 0.83330  0.31991  0.04121  Biso   1.000  O
  Al5      1.0000 0.49997  0.50003  0.07295  Biso   1.000  Al
  Al6      1.0000 0.99997  0.50003  0.07295  Biso   1.000  Al
  Al7      1.0000 0.49997  0.00002  0.07295  Biso   1.000  Al
  Al8      1.0000 0.99997  0.00002  0.07295  Biso   1.000  Al
  Al9      1.0000 0.83330  0.66670  0.09197  Biso   1.000  Al
  Al10     1.0000 0.33330  0.66670  0.09197  Biso   1.000  Al
  Al11     1.0000 0.33330  0.16669  0.09197  Biso   1.000  Al
  Al12     1.0000 0.83330  0.16669  0.09197  Biso   1.000  Al
  O13      1.0000 0.34676  0.50004  0.12371  Biso   1.000  O
  O14      1.0000 0.84676  0.50004  0.12371  Biso   1.000  O
  O15      1.0000 0.34676  0.00003  0.12371  Biso   1.000  O
  O16      1.0000 0.84676  0.00003  0.12371  Biso   1.000  O
  O17      1.0000 0.65319  0.65325  0.12371  Biso   1.000  O
  O18      1.0000 0.15319  0.65325  0.12371  Biso   1.000  O
  O19      1.0000 0.15319  0.15324  0.12371  Biso   1.000  O
  O20      1.0000 0.65319  0.15324  0.12371  Biso   1.000  O
  O21      1.0000 0.49997  0.84682  0.12371  Biso   1.000  O
  O22      1.0000 0.99997  0.84682  0.12371  Biso   1.000  O
  O23      1.0000 0.49997  0.34681  0.12371  Biso   1.000  O
  O24      1.0000 0.99997  0.34681  0.12371  Biso   1.000  O
  Al13     1.0000 0.66674  0.83339  0.15660  Biso   1.000  Al
  Al14     1.0000 0.16676  0.83351  0.15660  Biso   1.000  Al
  Al15     1.0000 0.66670  0.33341  0.15666  Biso   1.000  Al
  Al16     1.0000 0.16676  0.33339  0.15660  Biso   1.000  Al
  Al17     1.0000 0.50009  0.49993  0.17444  Biso   1.000  Al
  Al18     1.0000 0.00017  0.50019  0.17433  Biso   1.000  Al
  Al19     1.0000 0.50019  0.00021  0.17439  Biso   1.000  Al
  Al20     1.0000 0.00032  0.00011  0.17438  Biso   1.000  Al
  O25      1.0000 0.82035  0.83364  0.20688  Biso   1.000  O
  O26      1.0000 0.32032  0.83357  0.20674  Biso   1.000  O
  O27      1.0000 0.32007  0.33337  0.20687  Biso   1.000  O
  O28      1.0000 0.82034  0.33372  0.20678  Biso   1.000  O
  O29      1.0000 0.66705  0.98666  0.20677  Biso   1.000  O
  O30      1.0000 0.16683  0.98670  0.20684  Biso   1.000  O
  O31      1.0000 0.66690  0.48666  0.20685  Biso   1.000  O
  O32      1.0000 0.16671  0.48655  0.20674  Biso   1.000  O
  O33      1.0000 0.51385  0.68031  0.20678  Biso   1.000  O
  O34      1.0000 0.01364  0.68013  0.20678  Biso   1.000  O
  O35      1.0000 0.51371  0.18009  0.20692  Biso   1.000  O
  O36      1.0000 0.01368  0.18019  0.20680  Biso   1.000  O
  Al21     1.0000 0.83361  0.66672  0.23842  Biso   1.000  Al
  Al22     1.0000 0.33358  0.66671  0.23819  Biso   1.000  Al
  Al23     1.0000 0.33361  0.16679  0.23891  Biso   1.000  Al
  Al24     1.0000 0.83371  0.16705  0.23810  Biso   1.000  Al
  Al25     1.0000 0.66733  0.83356  0.25807  Biso   1.000  Al
  Al26     1.0000 0.16724  0.83351  0.25794  Biso   1.000  Al
  Al27     1.0000 0.16745  0.33362  0.25799  Biso   1.000  Al
  Al28     1.0000 0.66674  0.33338  0.25816  Biso   1.000  Al
  O37      1.0000 0.48775  0.82166  0.28959  Biso   1.000  O
  O38      1.0000 0.98685  0.81974  0.28958  Biso   1.000  O
  O39      1.0000 0.48654  0.32039  0.28956  Biso   1.000  O
  O40      1.0000 0.98725  0.32059  0.28977  Biso   1.000  O
  O41      1.0000 0.68043  0.66627  0.28951  Biso   1.000  O
  O42      1.0000 0.18052  0.66656  0.28929  Biso   1.000  O
  O43      1.0000 0.17981  0.16614  0.28966  Biso   1.000  O
  O44      1.0000 0.68113  0.16605  0.28927  Biso   1.000  O
  O45      1.0000 0.33480  0.51459  0.28931  Biso   1.000  O
  O46      1.0000 0.83446  0.51330  0.28971  Biso   1.000  O
  O47      1.0000 0.33328  0.01344  0.28961  Biso   1.000  O
  O48      1.0000 0.83521  0.01403  0.28968  Biso   1.000  O
  Al29     1.0000 0.50053  0.50032  0.32180  Biso   1.000  Al
  Al30     1.0000 0.00123  0.50122  0.32177  Biso   1.000  Al
  Al31     1.0000 0.00106  0.99923  0.32120  Biso   1.000  Al
  Al32     1.0000 0.50046  0.00157  0.32165  Biso   1.000  Al
  Al33     1.0000 0.33554  0.66889  0.33917  Biso   1.000  Al
  Al34     1.0000 0.83348  0.66565  0.33984  Biso   1.000  Al
  Al35     1.0000 0.33416  0.16628  0.34099  Biso   1.000  Al
  Al36     1.0000 0.83392  0.16658  0.33908  Biso   1.000  Al
  O49      1.0000 0.65517  0.49932  0.37271  Biso   1.000  O
  O50      1.0000 0.15596  0.50173  0.37212  Biso   1.000  O
  O51      1.0000 0.15387  0.00107  0.37361  Biso   1.000  O
  O52      1.0000 0.65930  0.00121  0.37373  Biso   1.000  O
  O53      1.0000 0.84463  0.84399  0.37283  Biso   1.000  O
  O54      1.0000 0.34529  0.84432  0.37269  Biso   1.000  O
  O55      1.0000 0.34316  0.34494  0.37217  Biso   1.000  O
  O56      1.0000 0.84513  0.34265  0.37373  Biso   1.000  O
  O57      1.0000 0.49969  0.65477  0.37294  Biso   1.000  O
  O58      1.0000 0.00033  0.65521  0.37325  Biso   1.000  O
  O59      1.0000 0.50247  0.15408  0.37132  Biso   1.000  O
  O60      1.0000 0.00221  0.15630  0.37369  Biso   1.000  O
  Al37     1.0000 0.66612  0.83115  0.41136  Biso   1.000  Al
  Al38     1.0000 0.16898  0.83545  0.41241  Biso   1.000  Al
  Al39     1.0000 0.16983  0.33941  0.40721  Biso   1.000  Al
  Al40     1.0000 0.66251  0.33105  0.41135  Biso   1.000  Al
  Al41     1.0000 0.49828  0.49488  0.42214  Biso   1.000  Al
  Al42     1.0000 0.99976  0.49980  0.42201  Biso   1.000  Al
  Al43     1.0000 0.99935  0.99510  0.42056  Biso   1.000  Al
  Al44     1.0000 0.49742  0.99947  0.42129  Biso   1.000  Al
  O61      1.0000 0.65850  0.66912  0.45503  Biso   1.000  O
  O62      1.0000 0.16025  0.66989  0.45527  Biso   1.000  O
  O63      1.0000 0.16731  0.16992  0.45827  Biso   1.000  O
  O64      1.0000 0.65621  0.17005  0.45515  Biso   1.000  O
  O65      1.0000 0.83311  0.98907  0.45525  Biso   1.000  O
  O66      1.0000 0.32859  0.98987  0.45354  Biso   1.000  O
  O67      1.0000 0.32602  0.48564  0.45431  Biso   1.000  O
  O68      1.0000 0.82844  0.48618  0.45538  Biso   1.000  O
  O69      1.0000 0.51294  0.84051  0.45481  Biso   1.000  O
  O70      1.0000 0.01046  0.83856  0.45555  Biso   1.000  O
  O71      1.0000 0.50787  0.33477  0.45320  Biso   1.000  O
  O72      1.0000 0.01414  0.33640  0.45420  Biso   1.000  O
  Al45     1.0000 0.33488  0.66647  0.46180  Biso   1.000  Al
  Al46     1.0000 0.83196  0.66397  0.46269  Biso   1.000  Al
  Al47     1.0000 0.35292  0.16441  0.48202  Biso   1.000  Al
  Al48     1.0000 0.82995  0.16499  0.45665  Biso   1.000  Al
  C1       1.0000 0.28041  0.03919  0.58074  Biso   1.000  C
  H1       1.0000 0.27784  0.08106  0.61906  Biso   1.000  H
  H2       1.0000 0.36061  0.98829  0.58118  Biso   1.000  H
  H3       1.0000 0.15878  0.94072  0.57175  Biso   1.000  H
  O73      1.0000 0.33306  0.16809  0.54667  Biso   1.000  O
  H4       1.0000 0.12859  0.19904  0.48837  Biso   1.000  H
