data_image0
_cell_length_a       9.61314
_cell_length_b       9.61293
_cell_length_c       26.4588
_cell_angle_alpha    90
_cell_angle_beta     90
_cell_angle_gamma    120

_symmetry_space_group_name_H-M    "P 1"
_symmetry_int_tables_number       1

loop_
  _symmetry_equiv_pos_as_xyz
  'x, y, z'

loop_
  _atom_site_label
  _atom_site_occupancy
  _atom_site_fract_x
  _atom_site_fract_y
  _atom_site_fract_z
  _atom_site_thermal_displace_type
  _atom_site_B_iso_or_equiv
  _atom_site_type_symbol
  Al1      1.0000 0.66663  0.83336  0.03203  Biso   1.000  Al
  Al2      1.0000 0.16664  0.83336  0.03202  Biso   1.000  Al
  Al3      1.0000 0.66663  0.33337  0.03204  Biso   1.000  Al
  Al4      1.0000 0.16663  0.33337  0.03202  Biso   1.000  Al
  O1       1.0000 0.68009  0.51349  0.04120  Biso   1.000  O
  O2       1.0000 0.18009  0.51349  0.04120  Biso   1.000  O
  O3       1.0000 0.18009  0.01348  0.04120  Biso   1.000  O
  O4       1.0000 0.68009  0.01348  0.04120  Biso   1.000  O
  O5       1.0000 0.48652  0.66670  0.04120  Biso   1.000  O
  O6       1.0000 0.98652  0.66670  0.04120  Biso   1.000  O
  O7       1.0000 0.48651  0.16670  0.04120  Biso   1.000  O
  O8       1.0000 0.98652  0.16670  0.04120  Biso   1.000  O
  O9       1.0000 0.83330  0.81992  0.04121  Biso   1.000  O
  O10      1.0000 0.33330  0.81992  0.04121  Biso   1.000  O
  O11      1.0000 0.33330  0.31991  0.04121  Biso   1.000  O
  O12      1.0000 0.83330  0.31991  0.04121  Biso   1.000  O
  Al5      1.0000 0.49997  0.50003  0.07295  Biso   1.000  Al
  Al6      1.0000 0.99997  0.50003  0.07295  Biso   1.000  Al
  Al7      1.0000 0.49997  0.00002  0.07295  Biso   1.000  Al
  Al8      1.0000 0.99997  0.00002  0.07295  Biso   1.000  Al
  Al9      1.0000 0.83330  0.66670  0.09197  Biso   1.000  Al
  Al10     1.0000 0.33330  0.66670  0.09197  Biso   1.000  Al
  Al11     1.0000 0.33330  0.16669  0.09197  Biso   1.000  Al
  Al12     1.0000 0.83330  0.16669  0.09197  Biso   1.000  Al
  O13      1.0000 0.34676  0.50004  0.12371  Biso   1.000  O
  O14      1.0000 0.84676  0.50004  0.12371  Biso   1.000  O
  O15      1.0000 0.34676  0.00003  0.12371  Biso   1.000  O
  O16      1.0000 0.84676  0.00003  0.12371  Biso   1.000  O
  O17      1.0000 0.65319  0.65325  0.12371  Biso   1.000  O
  O18      1.0000 0.15319  0.65325  0.12371  Biso   1.000  O
  O19      1.0000 0.15319  0.15324  0.12371  Biso   1.000  O
  O20      1.0000 0.65319  0.15324  0.12371  Biso   1.000  O
  O21      1.0000 0.49997  0.84682  0.12371  Biso   1.000  O
  O22      1.0000 0.99997  0.84682  0.12371  Biso   1.000  O
  O23      1.0000 0.49997  0.34681  0.12371  Biso   1.000  O
  O24      1.0000 0.99997  0.34681  0.12371  Biso   1.000  O
  Al13     1.0000 0.66682  0.83357  0.15665  Biso   1.000  Al
  Al14     1.0000 0.16683  0.83360  0.15664  Biso   1.000  Al
  Al15     1.0000 0.66676  0.33355  0.15668  Biso   1.000  Al
  Al16     1.0000 0.16681  0.33352  0.15663  Biso   1.000  Al
  Al17     1.0000 0.50026  0.50029  0.17424  Biso   1.000  Al
  Al18     1.0000 0.00028  0.50041  0.17417  Biso   1.000  Al
  Al19     1.0000 0.50039  0.00053  0.17424  Biso   1.000  Al
  Al20     1.0000 0.00047  0.00044  0.17422  Biso   1.000  Al
  O25      1.0000 0.82055  0.83418  0.20669  Biso   1.000  O
  O26      1.0000 0.32059  0.83421  0.20660  Biso   1.000  O
  O27      1.0000 0.32048  0.33407  0.20669  Biso   1.000  O
  O28      1.0000 0.82058  0.33422  0.20665  Biso   1.000  O
  O29      1.0000 0.66710  0.98707  0.20667  Biso   1.000  O
  O30      1.0000 0.16705  0.98715  0.20672  Biso   1.000  O
  O31      1.0000 0.66691  0.48698  0.20665  Biso   1.000  O
  O32      1.0000 0.16683  0.48698  0.20659  Biso   1.000  O
  O33      1.0000 0.51412  0.68066  0.20662  Biso   1.000  O
  O34      1.0000 0.01402  0.68052  0.20657  Biso   1.000  O
  O35      1.0000 0.51403  0.18050  0.20675  Biso   1.000  O
  O36      1.0000 0.01402  0.18054  0.20665  Biso   1.000  O
  Al21     1.0000 0.83394  0.66726  0.23798  Biso   1.000  Al
  Al22     1.0000 0.33386  0.66733  0.23789  Biso   1.000  Al
  Al23     1.0000 0.33406  0.16749  0.23849  Biso   1.000  Al
  Al24     1.0000 0.83401  0.16755  0.23799  Biso   1.000  Al
  Al25     1.0000 0.66757  0.83429  0.25804  Biso   1.000  Al
  Al26     1.0000 0.16785  0.83452  0.25792  Biso   1.000  Al
  Al27     1.0000 0.16779  0.33451  0.25791  Biso   1.000  Al
  Al28     1.0000 0.66727  0.33413  0.25807  Biso   1.000  Al
  O37      1.0000 0.48764  0.82220  0.28929  Biso   1.000  O
  O38      1.0000 0.98717  0.82086  0.28916  Biso   1.000  O
  O39      1.0000 0.48724  0.32132  0.28943  Biso   1.000  O
  O40      1.0000 0.98764  0.32137  0.28943  Biso   1.000  O
  O41      1.0000 0.68070  0.66687  0.28925  Biso   1.000  O
  O42      1.0000 0.18094  0.66755  0.28910  Biso   1.000  O
  O43      1.0000 0.18091  0.16734  0.28929  Biso   1.000  O
  O44      1.0000 0.68143  0.16712  0.28916  Biso   1.000  O
  O45      1.0000 0.33512  0.51539  0.28904  Biso   1.000  O
  O46      1.0000 0.83492  0.51460  0.28927  Biso   1.000  O
  O47      1.0000 0.33456  0.01474  0.28947  Biso   1.000  O
  O48      1.0000 0.83555  0.01495  0.28938  Biso   1.000  O
  Al29     1.0000 0.50067  0.50130  0.32148  Biso   1.000  Al
  Al30     1.0000 0.00133  0.50178  0.32139  Biso   1.000  Al
  Al31     1.0000 0.00200  0.00088  0.32069  Biso   1.000  Al
  Al32     1.0000 0.50156  0.00236  0.32156  Biso   1.000  Al
  Al33     1.0000 0.33579  0.66997  0.33890  Biso   1.000  Al
  Al34     1.0000 0.83398  0.66673  0.33924  Biso   1.000  Al
  Al35     1.0000 0.33509  0.16790  0.34039  Biso   1.000  Al
  Al36     1.0000 0.83480  0.16796  0.33923  Biso   1.000  Al
  O49      1.0000 0.65622  0.50047  0.37266  Biso   1.000  O
  O50      1.0000 0.15695  0.50334  0.37179  Biso   1.000  O
  O51      1.0000 0.15520  0.00125  0.37273  Biso   1.000  O
  O52      1.0000 0.65801  0.00154  0.37277  Biso   1.000  O
  O53      1.0000 0.84455  0.84482  0.37220  Biso   1.000  O
  O54      1.0000 0.34618  0.84635  0.37270  Biso   1.000  O
  O55      1.0000 0.34493  0.34649  0.37217  Biso   1.000  O
  O56      1.0000 0.84619  0.34564  0.37267  Biso   1.000  O
  O57      1.0000 0.50094  0.65665  0.37235  Biso   1.000  O
  O58      1.0000 0.00100  0.65689  0.37268  Biso   1.000  O
  O59      1.0000 0.50294  0.15617  0.37202  Biso   1.000  O
  O60      1.0000 0.00327  0.15732  0.37304  Biso   1.000  O
  Al37     1.0000 0.66617  0.83302  0.41083  Biso   1.000  Al
  Al38     1.0000 0.17000  0.83680  0.41161  Biso   1.000  Al
  Al39     1.0000 0.16969  0.34168  0.40839  Biso   1.000  Al
  Al40     1.0000 0.66671  0.33320  0.41096  Biso   1.000  Al
  Al41     1.0000 0.50027  0.49770  0.42152  Biso   1.000  Al
  Al42     1.0000 0.00084  0.50209  0.42130  Biso   1.000  Al
  Al43     1.0000 0.99630  0.99411  0.41973  Biso   1.000  Al
  Al44     1.0000 0.50155  0.00201  0.42127  Biso   1.000  Al
  O61      1.0000 0.66002  0.67119  0.45449  Biso   1.000  O
  O62      1.0000 0.16143  0.67260  0.45458  Biso   1.000  O
  O63      1.0000 0.16642  0.17084  0.45220  Biso   1.000  O
  O64      1.0000 0.66190  0.17229  0.45495  Biso   1.000  O
  O65      1.0000 0.83165  0.98913  0.45443  Biso   1.000  O
  O66      1.0000 0.33227  0.99110  0.45488  Biso   1.000  O
  O67      1.0000 0.32890  0.48879  0.45358  Biso   1.000  O
  O68      1.0000 0.82994  0.48864  0.45493  Biso   1.000  O
  O69      1.0000 0.51370  0.84183  0.45462  Biso   1.000  O
  O70      1.0000 0.01253  0.84069  0.45441  Biso   1.000  O
  O71      1.0000 0.51272  0.33876  0.45439  Biso   1.000  O
  O72      1.0000 0.01521  0.34137  0.45361  Biso   1.000  O
  Al45     1.0000 0.33530  0.66787  0.46120  Biso   1.000  Al
  Al46     1.0000 0.83399  0.66682  0.46149  Biso   1.000  Al
  Al47     1.0000 0.34433  0.16716  0.47452  Biso   1.000  Al
  Al48     1.0000 0.83622  0.16783  0.46053  Biso   1.000  Al
  O73      1.0000 0.19115  0.17523  0.51071  Biso   1.000  O
