data_image0
_cell_length_a       9.61314
_cell_length_b       9.61293
_cell_length_c       26.4588
_cell_angle_alpha    90
_cell_angle_beta     90
_cell_angle_gamma    120

_symmetry_space_group_name_H-M    "P 1"
_symmetry_int_tables_number       1

loop_
  _symmetry_equiv_pos_as_xyz
  'x, y, z'

loop_
  _atom_site_label
  _atom_site_occupancy
  _atom_site_fract_x
  _atom_site_fract_y
  _atom_site_fract_z
  _atom_site_thermal_displace_type
  _atom_site_B_iso_or_equiv
  _atom_site_type_symbol
  Al1      1.0000 0.66663  0.83336  0.03188  Biso   1.000  Al
  Al2      1.0000 0.16665  0.83337  0.03189  Biso   1.000  Al
  Al3      1.0000 0.66663  0.33336  0.03186  Biso   1.000  Al
  Al4      1.0000 0.16663  0.33337  0.03187  Biso   1.000  Al
  O1       1.0000 0.68009  0.51349  0.04120  Biso   1.000  O
  O2       1.0000 0.18009  0.51349  0.04120  Biso   1.000  O
  O3       1.0000 0.18009  0.01348  0.04120  Biso   1.000  O
  O4       1.0000 0.68009  0.01348  0.04120  Biso   1.000  O
  O5       1.0000 0.48652  0.66670  0.04120  Biso   1.000  O
  O6       1.0000 0.98652  0.66670  0.04120  Biso   1.000  O
  O7       1.0000 0.48651  0.16670  0.04120  Biso   1.000  O
  O8       1.0000 0.98652  0.16670  0.04120  Biso   1.000  O
  O9       1.0000 0.83330  0.81992  0.04121  Biso   1.000  O
  O10      1.0000 0.33330  0.81992  0.04121  Biso   1.000  O
  O11      1.0000 0.33330  0.31991  0.04121  Biso   1.000  O
  O12      1.0000 0.83330  0.31991  0.04121  Biso   1.000  O
  Al5      1.0000 0.49997  0.50003  0.07295  Biso   1.000  Al
  Al6      1.0000 0.99997  0.50003  0.07295  Biso   1.000  Al
  Al7      1.0000 0.49997  0.00002  0.07295  Biso   1.000  Al
  Al8      1.0000 0.99997  0.00002  0.07295  Biso   1.000  Al
  Al9      1.0000 0.83330  0.66670  0.09197  Biso   1.000  Al
  Al10     1.0000 0.33330  0.66670  0.09197  Biso   1.000  Al
  Al11     1.0000 0.33330  0.16669  0.09197  Biso   1.000  Al
  Al12     1.0000 0.83330  0.16669  0.09197  Biso   1.000  Al
  O13      1.0000 0.34676  0.50004  0.12371  Biso   1.000  O
  O14      1.0000 0.84676  0.50004  0.12371  Biso   1.000  O
  O15      1.0000 0.34676  0.00003  0.12371  Biso   1.000  O
  O16      1.0000 0.84676  0.00003  0.12371  Biso   1.000  O
  O17      1.0000 0.65319  0.65325  0.12371  Biso   1.000  O
  O18      1.0000 0.15319  0.65325  0.12371  Biso   1.000  O
  O19      1.0000 0.15319  0.15324  0.12371  Biso   1.000  O
  O20      1.0000 0.65319  0.15324  0.12371  Biso   1.000  O
  O21      1.0000 0.49997  0.84682  0.12371  Biso   1.000  O
  O22      1.0000 0.99997  0.84682  0.12371  Biso   1.000  O
  O23      1.0000 0.49997  0.34681  0.12371  Biso   1.000  O
  O24      1.0000 0.99997  0.34681  0.12371  Biso   1.000  O
  Al13     1.0000 0.66684  0.83343  0.15660  Biso   1.000  Al
  Al14     1.0000 0.16649  0.83330  0.15664  Biso   1.000  Al
  Al15     1.0000 0.66661  0.33326  0.15661  Biso   1.000  Al
  Al16     1.0000 0.16651  0.33298  0.15656  Biso   1.000  Al
  Al17     1.0000 0.49995  0.49943  0.17426  Biso   1.000  Al
  Al18     1.0000 0.99940  0.49962  0.17434  Biso   1.000  Al
  Al19     1.0000 0.50045  0.00034  0.17433  Biso   1.000  Al
  Al20     1.0000 0.99986  0.99976  0.17460  Biso   1.000  Al
  O25      1.0000 0.81956  0.83276  0.20703  Biso   1.000  O
  O26      1.0000 0.32003  0.83365  0.20668  Biso   1.000  O
  O27      1.0000 0.32002  0.33322  0.20692  Biso   1.000  O
  O28      1.0000 0.82010  0.33326  0.20693  Biso   1.000  O
  O29      1.0000 0.66623  0.98614  0.20695  Biso   1.000  O
  O30      1.0000 0.16668  0.98615  0.20713  Biso   1.000  O
  O31      1.0000 0.66591  0.48630  0.20692  Biso   1.000  O
  O32      1.0000 0.16641  0.48601  0.20659  Biso   1.000  O
  O33      1.0000 0.51355  0.67965  0.20660  Biso   1.000  O
  O34      1.0000 0.01362  0.67984  0.20693  Biso   1.000  O
  O35      1.0000 0.51316  0.17933  0.20693  Biso   1.000  O
  O36      1.0000 0.01351  0.17997  0.20708  Biso   1.000  O
  Al21     1.0000 0.83322  0.66613  0.23879  Biso   1.000  Al
  Al22     1.0000 0.33332  0.66658  0.23633  Biso   1.000  Al
  Al23     1.0000 0.33324  0.16617  0.23877  Biso   1.000  Al
  Al24     1.0000 0.83320  0.16627  0.23928  Biso   1.000  Al
  Al25     1.0000 0.66732  0.83383  0.25836  Biso   1.000  Al
  Al26     1.0000 0.16631  0.83319  0.25856  Biso   1.000  Al
  Al27     1.0000 0.16581  0.33192  0.25825  Biso   1.000  Al
  Al28     1.0000 0.66690  0.33245  0.25797  Biso   1.000  Al
  O37      1.0000 0.48562  0.81948  0.28953  Biso   1.000  O
  O38      1.0000 0.98529  0.82013  0.28972  Biso   1.000  O
  O39      1.0000 0.48583  0.31697  0.28958  Biso   1.000  O
  O40      1.0000 0.98885  0.32298  0.29042  Biso   1.000  O
  O41      1.0000 0.67640  0.66606  0.29082  Biso   1.000  O
  O42      1.0000 0.17850  0.66371  0.28926  Biso   1.000  O
  O43      1.0000 0.18105  0.16542  0.28975  Biso   1.000  O
  O44      1.0000 0.68117  0.16722  0.28966  Biso   1.000  O
  O45      1.0000 0.33582  0.51290  0.28944  Biso   1.000  O
  O46      1.0000 0.83157  0.51440  0.28921  Biso   1.000  O
  O47      1.0000 0.33418  0.01023  0.29094  Biso   1.000  O
  O48      1.0000 0.83418  0.01410  0.28947  Biso   1.000  O
  Al29     1.0000 0.49900  0.49346  0.32136  Biso   1.000  Al
  Al30     1.0000 0.99519  0.50142  0.32237  Biso   1.000  Al
  Al31     1.0000 0.99946  0.99992  0.32245  Biso   1.000  Al
  Al32     1.0000 0.50472  0.00175  0.32322  Biso   1.000  Al
  Al33     1.0000 0.33304  0.66504  0.33502  Biso   1.000  Al
  Al34     1.0000 0.83298  0.66901  0.34087  Biso   1.000  Al
  Al35     1.0000 0.33285  0.16338  0.34069  Biso   1.000  Al
  Al36     1.0000 0.83411  0.16796  0.34152  Biso   1.000  Al
  O49      1.0000 0.65298  0.50012  0.37258  Biso   1.000  O
  O50      1.0000 0.16869  0.50665  0.37565  Biso   1.000  O
  O51      1.0000 0.15544  0.99891  0.37372  Biso   1.000  O
  O52      1.0000 0.65461  0.00044  0.37200  Biso   1.000  O
  O53      1.0000 0.84396  0.84586  0.37369  Biso   1.000  O
  O54      1.0000 0.34175  0.83160  0.37573  Biso   1.000  O
  O55      1.0000 0.34579  0.34609  0.37337  Biso   1.000  O
  O56      1.0000 0.84919  0.35031  0.37219  Biso   1.000  O
  O57      1.0000 0.48781  0.65591  0.37878  Biso   1.000  O
  O58      1.0000 0.99951  0.65558  0.37230  Biso   1.000  O
  O59      1.0000 0.50073  0.15414  0.37360  Biso   1.000  O
  O60      1.0000 0.00263  0.15444  0.37129  Biso   1.000  O
  Al37     1.0000 0.67394  0.84383  0.41529  Biso   1.000  Al
  Al38     1.0000 0.16359  0.83271  0.41303  Biso   1.000  Al
  Al39     1.0000 0.15763  0.32453  0.40914  Biso   1.000  Al
  Al40     1.0000 0.67193  0.33324  0.41300  Biso   1.000  Al
  Al41     1.0000 0.50870  0.50139  0.42146  Biso   1.000  Al
  Al42     1.0000 0.99873  0.49799  0.42409  Biso   1.000  Al
  Al43     1.0000 0.99952  0.00235  0.42315  Biso   1.000  Al
  Al44     1.0000 0.51177  0.00882  0.42490  Biso   1.000  Al
  O61      1.0000 0.66257  0.67221  0.45585  Biso   1.000  O
  O62      1.0000 0.16121  0.67186  0.45363  Biso   1.000  O
  O63      1.0000 0.16553  0.17664  0.45475  Biso   1.000  O
  O64      1.0000 0.67207  0.17857  0.45486  Biso   1.000  O
  O65      1.0000 0.83362  0.99819  0.45505  Biso   1.000  O
  O66      1.0000 0.33191  0.98915  0.45484  Biso   1.000  O
  O67      1.0000 0.33102  0.49633  0.45655  Biso   1.000  O
  O68      1.0000 0.82938  0.49263  0.45550  Biso   1.000  O
  O69      1.0000 0.51466  0.84313  0.45500  Biso   1.000  O
  O70      1.0000 0.01316  0.84399  0.45650  Biso   1.000  O
  O71      1.0000 0.51223  0.34165  0.45594  Biso   1.000  O
  O72      1.0000 0.01217  0.33657  0.45331  Biso   1.000  O
  Al45     1.0000 0.33757  0.68066  0.43337  Biso   1.000  Al
  Al46     1.0000 0.83656  0.67060  0.46693  Biso   1.000  Al
  Al47     1.0000 0.33564  0.16540  0.46340  Biso   1.000  Al
  Al48     1.0000 0.83949  0.17161  0.48161  Biso   1.000  Al
  H1       1.0000 0.29858  0.46263  0.49136  Biso   1.000  H
