data_image0
_cell_length_a       9.61314
_cell_length_b       9.61293
_cell_length_c       26.4588
_cell_angle_alpha    90
_cell_angle_beta     90
_cell_angle_gamma    120

_symmetry_space_group_name_H-M    "P 1"
_symmetry_int_tables_number       1

loop_
  _symmetry_equiv_pos_as_xyz
  'x, y, z'

loop_
  _atom_site_label
  _atom_site_occupancy
  _atom_site_fract_x
  _atom_site_fract_y
  _atom_site_fract_z
  _atom_site_thermal_displace_type
  _atom_site_B_iso_or_equiv
  _atom_site_type_symbol
  Al1      1.0000 0.66664  0.83336  0.03205  Biso   1.000  Al
  Al2      1.0000 0.16664  0.83336  0.03204  Biso   1.000  Al
  Al3      1.0000 0.66664  0.33337  0.03206  Biso   1.000  Al
  Al4      1.0000 0.16663  0.33336  0.03205  Biso   1.000  Al
  O1       1.0000 0.68009  0.51349  0.04120  Biso   1.000  O
  O2       1.0000 0.18009  0.51349  0.04120  Biso   1.000  O
  O3       1.0000 0.18009  0.01348  0.04120  Biso   1.000  O
  O4       1.0000 0.68009  0.01348  0.04120  Biso   1.000  O
  O5       1.0000 0.48652  0.66670  0.04120  Biso   1.000  O
  O6       1.0000 0.98652  0.66670  0.04120  Biso   1.000  O
  O7       1.0000 0.48651  0.16670  0.04120  Biso   1.000  O
  O8       1.0000 0.98652  0.16670  0.04120  Biso   1.000  O
  O9       1.0000 0.83330  0.81992  0.04121  Biso   1.000  O
  O10      1.0000 0.33330  0.81992  0.04121  Biso   1.000  O
  O11      1.0000 0.33330  0.31991  0.04121  Biso   1.000  O
  O12      1.0000 0.83330  0.31991  0.04121  Biso   1.000  O
  Al5      1.0000 0.49997  0.50003  0.07295  Biso   1.000  Al
  Al6      1.0000 0.99997  0.50003  0.07295  Biso   1.000  Al
  Al7      1.0000 0.49997  0.00002  0.07295  Biso   1.000  Al
  Al8      1.0000 0.99997  0.00002  0.07295  Biso   1.000  Al
  Al9      1.0000 0.83330  0.66670  0.09197  Biso   1.000  Al
  Al10     1.0000 0.33330  0.66670  0.09197  Biso   1.000  Al
  Al11     1.0000 0.33330  0.16669  0.09197  Biso   1.000  Al
  Al12     1.0000 0.83330  0.16669  0.09197  Biso   1.000  Al
  O13      1.0000 0.34676  0.50004  0.12371  Biso   1.000  O
  O14      1.0000 0.84676  0.50004  0.12371  Biso   1.000  O
  O15      1.0000 0.34676  0.00003  0.12371  Biso   1.000  O
  O16      1.0000 0.84676  0.00003  0.12371  Biso   1.000  O
  O17      1.0000 0.65319  0.65325  0.12371  Biso   1.000  O
  O18      1.0000 0.15319  0.65325  0.12371  Biso   1.000  O
  O19      1.0000 0.15319  0.15324  0.12371  Biso   1.000  O
  O20      1.0000 0.65319  0.15324  0.12371  Biso   1.000  O
  O21      1.0000 0.49997  0.84682  0.12371  Biso   1.000  O
  O22      1.0000 0.99997  0.84682  0.12371  Biso   1.000  O
  O23      1.0000 0.49997  0.34681  0.12371  Biso   1.000  O
  O24      1.0000 0.99997  0.34681  0.12371  Biso   1.000  O
  Al13     1.0000 0.66667  0.83331  0.15658  Biso   1.000  Al
  Al14     1.0000 0.16669  0.83345  0.15659  Biso   1.000  Al
  Al15     1.0000 0.66662  0.33335  0.15665  Biso   1.000  Al
  Al16     1.0000 0.16670  0.33333  0.15658  Biso   1.000  Al
  Al17     1.0000 0.49992  0.49977  0.17448  Biso   1.000  Al
  Al18     1.0000 0.00003  0.50006  0.17435  Biso   1.000  Al
  Al19     1.0000 0.50001  0.00009  0.17442  Biso   1.000  Al
  Al20     1.0000 0.00019  0.99996  0.17441  Biso   1.000  Al
  O25      1.0000 0.82013  0.83344  0.20687  Biso   1.000  O
  O26      1.0000 0.32014  0.83339  0.20675  Biso   1.000  O
  O27      1.0000 0.31985  0.33318  0.20689  Biso   1.000  O
  O28      1.0000 0.82014  0.33354  0.20676  Biso   1.000  O
  O29      1.0000 0.66680  0.98642  0.20675  Biso   1.000  O
  O30      1.0000 0.16658  0.98648  0.20685  Biso   1.000  O
  O31      1.0000 0.66666  0.48642  0.20685  Biso   1.000  O
  O32      1.0000 0.16647  0.48632  0.20675  Biso   1.000  O
  O33      1.0000 0.51362  0.68011  0.20680  Biso   1.000  O
  O34      1.0000 0.01341  0.67988  0.20679  Biso   1.000  O
  O35      1.0000 0.51347  0.17987  0.20695  Biso   1.000  O
  O36      1.0000 0.01347  0.18000  0.20679  Biso   1.000  O
  Al21     1.0000 0.83333  0.66645  0.23843  Biso   1.000  Al
  Al22     1.0000 0.33331  0.66645  0.23820  Biso   1.000  Al
  Al23     1.0000 0.33329  0.16651  0.23899  Biso   1.000  Al
  Al24     1.0000 0.83342  0.16678  0.23801  Biso   1.000  Al
  Al25     1.0000 0.66697  0.83316  0.25809  Biso   1.000  Al
  Al26     1.0000 0.16688  0.83316  0.25794  Biso   1.000  Al
  Al27     1.0000 0.16713  0.33328  0.25802  Biso   1.000  Al
  Al28     1.0000 0.66628  0.33296  0.25819  Biso   1.000  Al
  O37      1.0000 0.48753  0.82139  0.28968  Biso   1.000  O
  O38      1.0000 0.98636  0.81911  0.28955  Biso   1.000  O
  O39      1.0000 0.48607  0.31994  0.28960  Biso   1.000  O
  O40      1.0000 0.98686  0.32023  0.28979  Biso   1.000  O
  O41      1.0000 0.67996  0.66578  0.28952  Biso   1.000  O
  O42      1.0000 0.18021  0.66624  0.28930  Biso   1.000  O
  O43      1.0000 0.17925  0.16572  0.28971  Biso   1.000  O
  O44      1.0000 0.68072  0.16556  0.28927  Biso   1.000  O
  O45      1.0000 0.33443  0.51425  0.28933  Biso   1.000  O
  O46      1.0000 0.83399  0.51266  0.28977  Biso   1.000  O
  O47      1.0000 0.33272  0.01296  0.28963  Biso   1.000  O
  O48      1.0000 0.83486  0.01359  0.28969  Biso   1.000  O
  Al29     1.0000 0.50006  0.49985  0.32189  Biso   1.000  Al
  Al30     1.0000 0.00099  0.50095  0.32184  Biso   1.000  Al
  Al31     1.0000 0.00055  0.99845  0.32127  Biso   1.000  Al
  Al32     1.0000 0.49989  0.00123  0.32176  Biso   1.000  Al
  Al33     1.0000 0.33515  0.66848  0.33918  Biso   1.000  Al
  Al34     1.0000 0.83284  0.66490  0.33985  Biso   1.000  Al
  Al35     1.0000 0.33350  0.16567  0.34115  Biso   1.000  Al
  Al36     1.0000 0.83339  0.16601  0.33886  Biso   1.000  Al
  O49      1.0000 0.65455  0.49869  0.37276  Biso   1.000  O
  O50      1.0000 0.15555  0.50128  0.37215  Biso   1.000  O
  O51      1.0000 0.15292  0.00040  0.37356  Biso   1.000  O
  O52      1.0000 0.65947  0.00122  0.37397  Biso   1.000  O
  O53      1.0000 0.84392  0.84307  0.37282  Biso   1.000  O
  O54      1.0000 0.34481  0.84373  0.37275  Biso   1.000  O
  O55      1.0000 0.34241  0.34439  0.37220  Biso   1.000  O
  O56      1.0000 0.84439  0.34136  0.37397  Biso   1.000  O
  O57      1.0000 0.49892  0.65408  0.37306  Biso   1.000  O
  O58      1.0000 0.99962  0.65430  0.37326  Biso   1.000  O
  O59      1.0000 0.50185  0.15333  0.37123  Biso   1.000  O
  O60      1.0000 0.00133  0.15577  0.37384  Biso   1.000  O
  Al37     1.0000 0.66542  0.83025  0.41146  Biso   1.000  Al
  Al38     1.0000 0.16841  0.83505  0.41257  Biso   1.000  Al
  Al39     1.0000 0.16934  0.33884  0.40721  Biso   1.000  Al
  Al40     1.0000 0.66107  0.32993  0.41155  Biso   1.000  Al
  Al41     1.0000 0.49724  0.49337  0.42231  Biso   1.000  Al
  Al42     1.0000 0.99903  0.49906  0.42211  Biso   1.000  Al
  Al43     1.0000 0.99897  0.99430  0.42070  Biso   1.000  Al
  Al44     1.0000 0.49601  0.99898  0.42153  Biso   1.000  Al
  O61      1.0000 0.65731  0.66794  0.45518  Biso   1.000  O
  O62      1.0000 0.15946  0.66908  0.45531  Biso   1.000  O
  O63      1.0000 0.16584  0.16844  0.45886  Biso   1.000  O
  O64      1.0000 0.65525  0.16930  0.45523  Biso   1.000  O
  O65      1.0000 0.83229  0.98789  0.45517  Biso   1.000  O
  O66      1.0000 0.32730  0.98979  0.45346  Biso   1.000  O
  O67      1.0000 0.32519  0.48471  0.45454  Biso   1.000  O
  O68      1.0000 0.82760  0.48521  0.45546  Biso   1.000  O
  O69      1.0000 0.51223  0.83994  0.45481  Biso   1.000  O
  O70      1.0000 0.00947  0.83735  0.45548  Biso   1.000  O
  O71      1.0000 0.50643  0.33309  0.45313  Biso   1.000  O
  O72      1.0000 0.01355  0.33543  0.45415  Biso   1.000  O
  Al45     1.0000 0.33423  0.66586  0.46148  Biso   1.000  Al
  Al46     1.0000 0.83098  0.66297  0.46242  Biso   1.000  Al
  Al47     1.0000 0.35298  0.16335  0.48404  Biso   1.000  Al
  Al48     1.0000 0.82887  0.16382  0.45469  Biso   1.000  Al
  H1       1.0000 0.12333  0.19929  0.48756  Biso   1.000  H
  C1       1.0000 0.34325  0.16465  0.55774  Biso   1.000  C
  H2       1.0000 0.38587  0.28469  0.57343  Biso   1.000  H
  H3       1.0000 0.42046  0.12158  0.57341  Biso   1.000  H
  H4       1.0000 0.22266  0.08566  0.57287  Biso   1.000  H
