data_image0
_cell_length_a       9.61314
_cell_length_b       9.61293
_cell_length_c       26.4588
_cell_angle_alpha    90
_cell_angle_beta     90
_cell_angle_gamma    120

_symmetry_space_group_name_H-M    "P 1"
_symmetry_int_tables_number       1

loop_
  _symmetry_equiv_pos_as_xyz
  'x, y, z'

loop_
  _atom_site_label
  _atom_site_occupancy
  _atom_site_fract_x
  _atom_site_fract_y
  _atom_site_fract_z
  _atom_site_thermal_displace_type
  _atom_site_B_iso_or_equiv
  _atom_site_type_symbol
  Al1      1.0000 0.66664  0.83336  0.03250  Biso   1.000  Al
  Al2      1.0000 0.16664  0.83336  0.03250  Biso   1.000  Al
  Al3      1.0000 0.66664  0.33337  0.03250  Biso   1.000  Al
  Al4      1.0000 0.16663  0.33336  0.03250  Biso   1.000  Al
  O1       1.0000 0.68009  0.51349  0.04120  Biso   1.000  O
  O2       1.0000 0.18009  0.51349  0.04120  Biso   1.000  O
  O3       1.0000 0.18009  0.01348  0.04120  Biso   1.000  O
  O4       1.0000 0.68009  0.01348  0.04120  Biso   1.000  O
  O5       1.0000 0.48652  0.66670  0.04120  Biso   1.000  O
  O6       1.0000 0.98652  0.66670  0.04120  Biso   1.000  O
  O7       1.0000 0.48651  0.16670  0.04120  Biso   1.000  O
  O8       1.0000 0.98652  0.16670  0.04120  Biso   1.000  O
  O9       1.0000 0.83330  0.81992  0.04121  Biso   1.000  O
  O10      1.0000 0.33330  0.81992  0.04121  Biso   1.000  O
  O11      1.0000 0.33330  0.31991  0.04121  Biso   1.000  O
  O12      1.0000 0.83330  0.31991  0.04121  Biso   1.000  O
  Al5      1.0000 0.49997  0.50003  0.07295  Biso   1.000  Al
  Al6      1.0000 0.99997  0.50003  0.07295  Biso   1.000  Al
  Al7      1.0000 0.49997  0.00002  0.07295  Biso   1.000  Al
  Al8      1.0000 0.99997  0.00002  0.07295  Biso   1.000  Al
  Al9      1.0000 0.83330  0.66670  0.09197  Biso   1.000  Al
  Al10     1.0000 0.33330  0.66670  0.09197  Biso   1.000  Al
  Al11     1.0000 0.33330  0.16669  0.09197  Biso   1.000  Al
  Al12     1.0000 0.83330  0.16669  0.09197  Biso   1.000  Al
  O13      1.0000 0.34676  0.50004  0.12371  Biso   1.000  O
  O14      1.0000 0.84676  0.50004  0.12371  Biso   1.000  O
  O15      1.0000 0.34676  0.00003  0.12371  Biso   1.000  O
  O16      1.0000 0.84676  0.00003  0.12371  Biso   1.000  O
  O17      1.0000 0.65319  0.65325  0.12371  Biso   1.000  O
  O18      1.0000 0.15319  0.65325  0.12371  Biso   1.000  O
  O19      1.0000 0.15319  0.15324  0.12371  Biso   1.000  O
  O20      1.0000 0.65319  0.15324  0.12371  Biso   1.000  O
  O21      1.0000 0.49997  0.84682  0.12371  Biso   1.000  O
  O22      1.0000 0.99997  0.84682  0.12371  Biso   1.000  O
  O23      1.0000 0.49997  0.34681  0.12371  Biso   1.000  O
  O24      1.0000 0.99997  0.34681  0.12371  Biso   1.000  O
  Al13     1.0000 0.66671  0.83339  0.15673  Biso   1.000  Al
  Al14     1.0000 0.16673  0.83346  0.15675  Biso   1.000  Al
  Al15     1.0000 0.66667  0.33336  0.15676  Biso   1.000  Al
  Al16     1.0000 0.16676  0.33340  0.15676  Biso   1.000  Al
  Al17     1.0000 0.50006  0.49998  0.17447  Biso   1.000  Al
  Al18     1.0000 0.00014  0.50008  0.17442  Biso   1.000  Al
  Al19     1.0000 0.50013  0.00017  0.17448  Biso   1.000  Al
  Al20     1.0000 0.00023  0.00013  0.17448  Biso   1.000  Al
  O25      1.0000 0.82018  0.83370  0.20676  Biso   1.000  O
  O26      1.0000 0.32021  0.83362  0.20675  Biso   1.000  O
  O27      1.0000 0.32020  0.33369  0.20680  Biso   1.000  O
  O28      1.0000 0.82035  0.33379  0.20675  Biso   1.000  O
  O29      1.0000 0.66673  0.98654  0.20676  Biso   1.000  O
  O30      1.0000 0.16658  0.98653  0.20679  Biso   1.000  O
  O31      1.0000 0.66671  0.48660  0.20675  Biso   1.000  O
  O32      1.0000 0.16649  0.48652  0.20674  Biso   1.000  O
  O33      1.0000 0.51384  0.68015  0.20672  Biso   1.000  O
  O34      1.0000 0.01377  0.68000  0.20672  Biso   1.000  O
  O35      1.0000 0.51381  0.18009  0.20679  Biso   1.000  O
  O36      1.0000 0.01369  0.18010  0.20677  Biso   1.000  O
  Al21     1.0000 0.83365  0.66678  0.23811  Biso   1.000  Al
  Al22     1.0000 0.33360  0.66677  0.23810  Biso   1.000  Al
  Al23     1.0000 0.33355  0.16678  0.23861  Biso   1.000  Al
  Al24     1.0000 0.83361  0.16686  0.23815  Biso   1.000  Al
  Al25     1.0000 0.66720  0.83357  0.25831  Biso   1.000  Al
  Al26     1.0000 0.16699  0.83355  0.25827  Biso   1.000  Al
  Al27     1.0000 0.16708  0.33342  0.25831  Biso   1.000  Al
  Al28     1.0000 0.66699  0.33341  0.25829  Biso   1.000  Al
  O37      1.0000 0.48711  0.82095  0.28947  Biso   1.000  O
  O38      1.0000 0.98597  0.81963  0.28929  Biso   1.000  O
  O39      1.0000 0.48689  0.32039  0.28943  Biso   1.000  O
  O40      1.0000 0.98704  0.32060  0.28967  Biso   1.000  O
  O41      1.0000 0.67970  0.66593  0.28948  Biso   1.000  O
  O42      1.0000 0.17993  0.66627  0.28954  Biso   1.000  O
  O43      1.0000 0.18014  0.16643  0.28947  Biso   1.000  O
  O44      1.0000 0.68100  0.16619  0.28927  Biso   1.000  O
  O45      1.0000 0.33439  0.51459  0.28926  Biso   1.000  O
  O46      1.0000 0.83436  0.51346  0.28959  Biso   1.000  O
  O47      1.0000 0.33414  0.01373  0.28941  Biso   1.000  O
  O48      1.0000 0.83477  0.01365  0.28966  Biso   1.000  O
  Al29     1.0000 0.49953  0.49959  0.32164  Biso   1.000  Al
  Al30     1.0000 0.00063  0.50024  0.32201  Biso   1.000  Al
  Al31     1.0000 0.00115  0.99972  0.32191  Biso   1.000  Al
  Al32     1.0000 0.50075  0.00102  0.32155  Biso   1.000  Al
  Al33     1.0000 0.33390  0.66706  0.33916  Biso   1.000  Al
  Al34     1.0000 0.83345  0.66662  0.33912  Biso   1.000  Al
  Al35     1.0000 0.33382  0.16690  0.34036  Biso   1.000  Al
  Al36     1.0000 0.83446  0.16676  0.33924  Biso   1.000  Al
  O49      1.0000 0.65675  0.50085  0.37278  Biso   1.000  O
  O50      1.0000 0.15682  0.50112  0.37311  Biso   1.000  O
  O51      1.0000 0.15392  0.99890  0.37186  Biso   1.000  O
  O52      1.0000 0.65769  0.00137  0.37325  Biso   1.000  O
  O53      1.0000 0.84467  0.84318  0.37316  Biso   1.000  O
  O54      1.0000 0.34526  0.84410  0.37263  Biso   1.000  O
  O55      1.0000 0.34564  0.34660  0.37195  Biso   1.000  O
  O56      1.0000 0.84489  0.34353  0.37325  Biso   1.000  O
  O57      1.0000 0.49979  0.65630  0.37304  Biso   1.000  O
  O58      1.0000 0.99942  0.65539  0.37312  Biso   1.000  O
  O59      1.0000 0.50232  0.15527  0.37183  Biso   1.000  O
  O60      1.0000 0.00029  0.15577  0.37319  Biso   1.000  O
  Al37     1.0000 0.66747  0.83358  0.41127  Biso   1.000  Al
  Al38     1.0000 0.16826  0.83566  0.41094  Biso   1.000  Al
  Al39     1.0000 0.16878  0.33233  0.41156  Biso   1.000  Al
  Al40     1.0000 0.66501  0.33245  0.41097  Biso   1.000  Al
  Al41     1.0000 0.49945  0.49817  0.42124  Biso   1.000  Al
  Al42     1.0000 0.00070  0.50013  0.42184  Biso   1.000  Al
  Al43     1.0000 0.00354  0.00162  0.42182  Biso   1.000  Al
  Al44     1.0000 0.49933  0.00114  0.42113  Biso   1.000  Al
  O61      1.0000 0.65857  0.67044  0.45483  Biso   1.000  O
  O62      1.0000 0.16009  0.67219  0.45493  Biso   1.000  O
  O63      1.0000 0.16347  0.17158  0.45463  Biso   1.000  O
  O64      1.0000 0.65882  0.17107  0.45562  Biso   1.000  O
  O65      1.0000 0.83013  0.98767  0.45487  Biso   1.000  O
  O66      1.0000 0.32821  0.99002  0.45315  Biso   1.000  O
  O67      1.0000 0.32960  0.48773  0.45506  Biso   1.000  O
  O68      1.0000 0.82835  0.48746  0.45506  Biso   1.000  O
  O69      1.0000 0.51261  0.84226  0.45498  Biso   1.000  O
  O70      1.0000 0.01343  0.84128  0.45516  Biso   1.000  O
  O71      1.0000 0.51049  0.33869  0.45366  Biso   1.000  O
  O72      1.0000 0.01320  0.34076  0.45492  Biso   1.000  O
  Al45     1.0000 0.33422  0.66681  0.45831  Biso   1.000  Al
  Al46     1.0000 0.83383  0.66726  0.45798  Biso   1.000  Al
  Al47     1.0000 0.33451  0.16603  0.47068  Biso   1.000  Al
  Al48     1.0000 0.83395  0.16638  0.45802  Biso   1.000  Al
  C1       1.0000 0.40192  0.05126  0.56698  Biso   1.000  C
  H1       1.0000 0.42106  0.07786  0.60725  Biso   1.000  H
  H2       1.0000 0.49813  0.03750  0.55032  Biso   1.000  H
  H3       1.0000 0.28718  0.94314  0.56021  Biso   1.000  H
  O73      1.0000 0.39341  0.18250  0.54198  Biso   1.000  O
  H4       1.0000 0.50107  0.27764  0.54086  Biso   1.000  H
