data_image0
_cell_length_a       7.50446
_cell_length_b       7.50244
_cell_length_c       18.5212
_cell_angle_alpha    90
_cell_angle_beta     90
_cell_angle_gamma    119.971

_symmetry_space_group_name_H-M    "P 1"
_symmetry_int_tables_number       1

loop_
  _symmetry_equiv_pos_as_xyz
  'x, y, z'

loop_
  _atom_site_label
  _atom_site_occupancy
  _atom_site_fract_x
  _atom_site_fract_y
  _atom_site_fract_z
  _atom_site_thermal_displace_type
  _atom_site_B_iso_or_equiv
  _atom_site_type_symbol
  N1       1.0000 0.10602  0.23407  0.98815  Biso   1.000  N
  N2       1.0000 0.10690  0.56798  0.98508  Biso   1.000  N
  N3       1.0000 0.10788  0.90228  0.99916  Biso   1.000  N
  B1       1.0000 0.32640  0.34256  0.99885  Biso   1.000  B
  N4       1.0000 0.43976  0.23463  0.99967  Biso   1.000  N
  B2       1.0000 0.32601  0.68128  0.99747  Biso   1.000  B
  N5       1.0000 0.41626  0.55806  0.01001  Biso   1.000  N
  B3       1.0000 0.32905  0.01334  0.99809  Biso   1.000  B
  N6       1.0000 0.43952  0.90250  0.99946  Biso   1.000  N
  B4       1.0000 0.66184  0.34368  0.99624  Biso   1.000  B
  N7       1.0000 0.77322  0.23348  0.98731  Biso   1.000  N
  Au1      1.0000 0.65175  0.68052  0.08349  Biso   1.000  Au
  N8       1.0000 0.78493  0.55815  0.00409  Biso   1.000  N
  B5       1.0000 0.66199  0.01383  0.99903  Biso   1.000  B
  N9       1.0000 0.78271  0.92037  0.01385  Biso   1.000  N
  B6       1.0000 0.99528  0.34547  0.98627  Biso   1.000  B
  B7       1.0000 0.99818  0.68060  0.99506  Biso   1.000  B
  B8       1.0000 0.99707  0.01342  0.99921  Biso   1.000  B
  O1       1.0000 0.55250  0.54836  0.17709  Biso   1.000  O
  C1       1.0000 0.50124  0.19532  0.20089  Biso   1.000  C
  H1       1.0000 0.35863  0.09998  0.17189  Biso   1.000  H
  H2       1.0000 0.63455  0.19173  0.17991  Biso   1.000  H
  H3       1.0000 0.48660  0.18658  0.25935  Biso   1.000  H
  H4       1.0000 0.53545  0.38687  0.18807  Biso   1.000  H
