data_image0
_cell_length_a       7.36011
_cell_length_b       7.36001
_cell_length_c       18.5212
_cell_angle_alpha    90
_cell_angle_beta     90
_cell_angle_gamma    120.001

_symmetry_space_group_name_H-M    "P 1"
_symmetry_int_tables_number       1

loop_
  _symmetry_equiv_pos_as_xyz
  'x, y, z'

loop_
  _atom_site_label
  _atom_site_occupancy
  _atom_site_fract_x
  _atom_site_fract_y
  _atom_site_fract_z
  _atom_site_thermal_displace_type
  _atom_site_B_iso_or_equiv
  _atom_site_type_symbol
  C1       1.0000 0.00343  0.98879  0.99820  Biso   1.000  C
  C2       1.0000 0.11447  0.87796  0.99796  Biso   1.000  C
  C3       1.0000 0.00296  0.32247  0.00257  Biso   1.000  C
  C4       1.0000 0.11244  0.20945  0.00286  Biso   1.000  C
  C5       1.0000 0.00413  0.65641  0.99842  Biso   1.000  C
  C6       1.0000 0.11424  0.54517  0.00389  Biso   1.000  C
  C7       1.0000 0.33629  0.98867  0.99811  Biso   1.000  C
  C8       1.0000 0.44777  0.87892  0.00327  Biso   1.000  C
  C9       1.0000 0.32982  0.30983  0.01160  Biso   1.000  C
  C10      1.0000 0.44752  0.21003  0.00111  Biso   1.000  C
  C11      1.0000 0.33242  0.66153  0.01385  Biso   1.000  C
  C12      1.0000 0.67036  0.99006  0.00218  Biso   1.000  C
  C13      1.0000 0.78267  0.87986  0.00274  Biso   1.000  C
  C14      1.0000 0.67002  0.32256  0.00057  Biso   1.000  C
  C15      1.0000 0.78115  0.21181  0.99938  Biso   1.000  C
  C16      1.0000 0.68302  0.66294  0.01229  Biso   1.000  C
  C17      1.0000 0.78252  0.54506  0.00149  Biso   1.000  C
  Co1      1.0000 0.45112  0.54043  0.06475  Biso   1.000  Co
  O1       1.0000 0.48698  0.54134  0.15738  Biso   1.000  O
  C18      1.0000 0.76921  0.45413  0.19244  Biso   1.000  C
  H1       1.0000 0.76251  0.44754  0.25102  Biso   1.000  H
  H2       1.0000 0.71541  0.30284  0.16665  Biso   1.000  H
  H3       1.0000 0.62238  0.50383  0.17526  Biso   1.000  H
  H4       1.0000 0.91530  0.58047  0.17069  Biso   1.000  H
