data_image0
_cell_length_a       12.26
_cell_length_b       12.2622
_cell_length_c       18
_cell_angle_alpha    90
_cell_angle_beta     90
_cell_angle_gamma    119.994

_symmetry_space_group_name_H-M    "P 1"
_symmetry_int_tables_number       1

loop_
  _symmetry_equiv_pos_as_xyz
  'x, y, z'

loop_
  _atom_site_label
  _atom_site_occupancy
  _atom_site_fract_x
  _atom_site_fract_y
  _atom_site_fract_z
  _atom_site_thermal_displace_type
  _atom_site_B_iso_or_equiv
  _atom_site_type_symbol
  C1       1.0000 0.01142  0.01015  0.08488  Biso   1.000  C
  C2       1.0000 0.27650  0.13849  0.08481  Biso   1.000  C
  C3       1.0000 0.20907  0.00412  0.08480  Biso   1.000  C
  C4       1.0000 0.47445  0.13848  0.08279  Biso   1.000  C
  C5       1.0000 0.40746  0.00408  0.08444  Biso   1.000  C
  C6       1.0000 0.67777  0.14467  0.08241  Biso   1.000  C
  C7       1.0000 0.61112  0.01006  0.08413  Biso   1.000  C
  C8       1.0000 0.88239  0.15238  0.08556  Biso   1.000  C
  C9       1.0000 0.81444  0.01645  0.08502  Biso   1.000  C
  C10      1.0000 0.07936  0.14478  0.08609  Biso   1.000  C
  C11      1.0000 0.21196  0.20731  0.08593  Biso   1.000  C
  C12      1.0000 0.47635  0.34020  0.08255  Biso   1.000  C
  C13      1.0000 0.40925  0.20606  0.08335  Biso   1.000  C
  C14      1.0000 0.67314  0.34096  0.07871  Biso   1.000  C
  C15      1.0000 0.60778  0.20730  0.08100  Biso   1.000  C
  C16      1.0000 0.81270  0.21778  0.08316  Biso   1.000  C
  C17      1.0000 0.01747  0.21792  0.08706  Biso   1.000  C
  C18      1.0000 0.28019  0.34097  0.08654  Biso   1.000  C
  C19      1.0000 0.41250  0.40838  0.08473  Biso   1.000  C
  C20      1.0000 0.67501  0.54187  0.08003  Biso   1.000  C
  C21      1.0000 0.60827  0.40841  0.07984  Biso   1.000  C
  C22      1.0000 0.87203  0.54274  0.07869  Biso   1.000  C
  C23      1.0000 0.80441  0.40751  0.07836  Biso   1.000  C
  C24      1.0000 0.28303  0.54265  0.08866  Biso   1.000  C
  C25      1.0000 0.21536  0.40747  0.08838  Biso   1.000  C
  C26      1.0000 0.47926  0.54187  0.08476  Biso   1.000  C
  C27      1.0000 0.61127  0.61009  0.08271  Biso   1.000  C
  C28      1.0000 0.87563  0.74299  0.08150  Biso   1.000  C
  C29      1.0000 0.80733  0.60931  0.07922  Biso   1.000  C
  C30      1.0000 0.07003  0.73251  0.08358  Biso   1.000  C
  C31      1.0000 0.27476  0.73248  0.08756  Biso   1.000  C
  C32      1.0000 0.47979  0.74296  0.08614  Biso   1.000  C
  C33      1.0000 0.41430  0.60923  0.08670  Biso   1.000  C
  C34      1.0000 0.67833  0.74422  0.08356  Biso   1.000  C
  C35      1.0000 0.81111  0.81183  0.08308  Biso   1.000  C
  C36      1.0000 0.07620  0.94022  0.08431  Biso   1.000  C
  C37      1.0000 0.00823  0.80564  0.08280  Biso   1.000  C
  C38      1.0000 0.27318  0.93390  0.08517  Biso   1.000  C
  C39      1.0000 0.20517  0.79794  0.08598  Biso   1.000  C
  C40      1.0000 0.47642  0.94015  0.08484  Biso   1.000  C
  C41      1.0000 0.40975  0.80553  0.08631  Biso   1.000  C
  C42      1.0000 0.68010  0.94619  0.08475  Biso   1.000  C
  C43      1.0000 0.61312  0.81180  0.08494  Biso   1.000  C
  C44      1.0000 0.87854  0.94623  0.08451  Biso   1.000  C
  N1       1.0000 0.87195  0.34730  0.08147  Biso   1.000  N
  N2       1.0000 0.08750  0.34748  0.08879  Biso   1.000  N
  N3       1.0000 0.99982  0.60302  0.08188  Biso   1.000  N
  N4       1.0000 0.21513  0.60277  0.08977  Biso   1.000  N
  Co1      1.0000 0.04276  0.47528  0.09358  Biso   1.000  Co
  O1       1.0000 0.01658  0.46692  0.21334  Biso   1.000  O
  H1       1.0000 0.08180  0.54104  0.23889  Biso   1.000  H
  C45      1.0000 0.79865  0.43573  0.27012  Biso   1.000  C
  H2       1.0000 0.81080  0.44124  0.32995  Biso   1.000  H
  H3       1.0000 0.73253  0.34290  0.24858  Biso   1.000  H
  H4       1.0000 0.79273  0.51305  0.24482  Biso   1.000  H
  H5       1.0000 0.93020  0.45406  0.23598  Biso   1.000  H
