data_image0
_cell_length_a       12.26
_cell_length_b       12.2622
_cell_length_c       18
_cell_angle_alpha    90
_cell_angle_beta     90
_cell_angle_gamma    119.994

_symmetry_space_group_name_H-M    "P 1"
_symmetry_int_tables_number       1

loop_
  _symmetry_equiv_pos_as_xyz
  'x, y, z'

loop_
  _atom_site_label
  _atom_site_occupancy
  _atom_site_fract_x
  _atom_site_fract_y
  _atom_site_fract_z
  _atom_site_thermal_displace_type
  _atom_site_B_iso_or_equiv
  _atom_site_type_symbol
  C1       1.0000 0.01132  0.01017  0.08753  Biso   1.000  C
  C2       1.0000 0.27640  0.13865  0.08778  Biso   1.000  C
  C3       1.0000 0.20903  0.00419  0.08772  Biso   1.000  C
  C4       1.0000 0.47454  0.13871  0.08793  Biso   1.000  C
  C5       1.0000 0.40752  0.00428  0.08769  Biso   1.000  C
  C6       1.0000 0.67790  0.14481  0.08784  Biso   1.000  C
  C7       1.0000 0.61115  0.01019  0.08783  Biso   1.000  C
  C8       1.0000 0.88234  0.15241  0.08813  Biso   1.000  C
  C9       1.0000 0.81427  0.01625  0.08825  Biso   1.000  C
  C10      1.0000 0.07919  0.14483  0.08716  Biso   1.000  C
  C11      1.0000 0.21183  0.20744  0.08722  Biso   1.000  C
  C12      1.0000 0.47628  0.34029  0.08779  Biso   1.000  C
  C13      1.0000 0.40922  0.20619  0.08797  Biso   1.000  C
  C14      1.0000 0.67332  0.34107  0.08777  Biso   1.000  C
  C15      1.0000 0.60790  0.20747  0.08783  Biso   1.000  C
  C16      1.0000 0.81284  0.21785  0.08800  Biso   1.000  C
  C17      1.0000 0.01730  0.21791  0.08719  Biso   1.000  C
  C18      1.0000 0.28004  0.34106  0.08678  Biso   1.000  C
  C19      1.0000 0.41232  0.40842  0.08732  Biso   1.000  C
  C20      1.0000 0.67522  0.54198  0.08794  Biso   1.000  C
  C21      1.0000 0.60839  0.40844  0.08787  Biso   1.000  C
  C22      1.0000 0.87226  0.54257  0.08755  Biso   1.000  C
  C23      1.0000 0.80480  0.40771  0.08758  Biso   1.000  C
  C24      1.0000 0.28271  0.54249  0.08627  Biso   1.000  C
  C25      1.0000 0.21519  0.40768  0.08605  Biso   1.000  C
  C26      1.0000 0.47915  0.54196  0.08738  Biso   1.000  C
  C27      1.0000 0.61128  0.61014  0.08789  Biso   1.000  C
  C28      1.0000 0.87566  0.74293  0.08775  Biso   1.000  C
  C29      1.0000 0.80752  0.60931  0.08780  Biso   1.000  C
  C30      1.0000 0.07020  0.73251  0.08762  Biso   1.000  C
  C31      1.0000 0.27468  0.73262  0.08723  Biso   1.000  C
  C32      1.0000 0.47960  0.74292  0.08736  Biso   1.000  C
  C33      1.0000 0.41417  0.60927  0.08692  Biso   1.000  C
  C34      1.0000 0.67828  0.74424  0.08818  Biso   1.000  C
  C35      1.0000 0.81111  0.81175  0.08809  Biso   1.000  C
  C36      1.0000 0.07619  0.94021  0.08750  Biso   1.000  C
  C37      1.0000 0.00831  0.80556  0.08745  Biso   1.000  C
  C38      1.0000 0.27330  0.93422  0.08778  Biso   1.000  C
  C39      1.0000 0.20520  0.79804  0.08780  Biso   1.000  C
  C40      1.0000 0.47637  0.94026  0.08748  Biso   1.000  C
  C41      1.0000 0.40961  0.80561  0.08712  Biso   1.000  C
  C42      1.0000 0.68000  0.94619  0.08817  Biso   1.000  C
  C43      1.0000 0.61295  0.81173  0.08806  Biso   1.000  C
  C44      1.0000 0.87848  0.94620  0.08798  Biso   1.000  C
  N1       1.0000 0.87248  0.34756  0.08706  Biso   1.000  N
  N2       1.0000 0.08734  0.34763  0.08561  Biso   1.000  N
  N3       1.0000 0.00017  0.60265  0.08704  Biso   1.000  N
  N4       1.0000 0.21475  0.60259  0.08642  Biso   1.000  N
  Co1      1.0000 0.04388  0.47512  0.09657  Biso   1.000  Co
  O1       1.0000 0.04057  0.46847  0.20133  Biso   1.000  O
  H1       1.0000 0.10745  0.54932  0.21969  Biso   1.000  H
