data_image0
_cell_length_a       12.26
_cell_length_b       12.2622
_cell_length_c       18
_cell_angle_alpha    90
_cell_angle_beta     90
_cell_angle_gamma    119.994

_symmetry_space_group_name_H-M    "P 1"
_symmetry_int_tables_number       1

loop_
  _symmetry_equiv_pos_as_xyz
  'x, y, z'

loop_
  _atom_site_label
  _atom_site_occupancy
  _atom_site_fract_x
  _atom_site_fract_y
  _atom_site_fract_z
  _atom_site_thermal_displace_type
  _atom_site_B_iso_or_equiv
  _atom_site_type_symbol
  C1       1.0000 0.01266  0.01087  0.08301  Biso   1.000  C
  C2       1.0000 0.27780  0.13924  0.08373  Biso   1.000  C
  C3       1.0000 0.21036  0.00481  0.08366  Biso   1.000  C
  C4       1.0000 0.47576  0.13922  0.08247  Biso   1.000  C
  C5       1.0000 0.40876  0.00484  0.08344  Biso   1.000  C
  C6       1.0000 0.67906  0.14542  0.08140  Biso   1.000  C
  C7       1.0000 0.61244  0.01082  0.08279  Biso   1.000  C
  C8       1.0000 0.88371  0.15312  0.08278  Biso   1.000  C
  C9       1.0000 0.81570  0.01711  0.08300  Biso   1.000  C
  C10      1.0000 0.08065  0.14546  0.08337  Biso   1.000  C
  C11      1.0000 0.21326  0.20800  0.08380  Biso   1.000  C
  C12      1.0000 0.47765  0.34090  0.08253  Biso   1.000  C
  C13      1.0000 0.41060  0.20683  0.08302  Biso   1.000  C
  C14      1.0000 0.67445  0.34177  0.07940  Biso   1.000  C
  C15      1.0000 0.60910  0.20807  0.08091  Biso   1.000  C
  C16      1.0000 0.81399  0.21847  0.08135  Biso   1.000  C
  C17      1.0000 0.01879  0.21856  0.08321  Biso   1.000  C
  C18      1.0000 0.28161  0.34170  0.08407  Biso   1.000  C
  C19      1.0000 0.41385  0.40909  0.08370  Biso   1.000  C
  C20      1.0000 0.67640  0.54263  0.08041  Biso   1.000  C
  C21      1.0000 0.60969  0.40916  0.08053  Biso   1.000  C
  C22      1.0000 0.87331  0.54341  0.07899  Biso   1.000  C
  C23      1.0000 0.80572  0.40836  0.07861  Biso   1.000  C
  C24      1.0000 0.28435  0.54324  0.08475  Biso   1.000  C
  C25      1.0000 0.21679  0.40824  0.08407  Biso   1.000  C
  C26      1.0000 0.48058  0.54260  0.08369  Biso   1.000  C
  C27      1.0000 0.61266  0.61085  0.08236  Biso   1.000  C
  C28      1.0000 0.87689  0.74366  0.08098  Biso   1.000  C
  C29      1.0000 0.80863  0.61000  0.07946  Biso   1.000  C
  C30      1.0000 0.07133  0.73312  0.08245  Biso   1.000  C
  C31      1.0000 0.27604  0.73318  0.08479  Biso   1.000  C
  C32      1.0000 0.48109  0.74369  0.08428  Biso   1.000  C
  C33      1.0000 0.41570  0.60994  0.08444  Biso   1.000  C
  C34      1.0000 0.67960  0.74491  0.08276  Biso   1.000  C
  C35      1.0000 0.81240  0.81252  0.08215  Biso   1.000  C
  C36      1.0000 0.07750  0.94089  0.08300  Biso   1.000  C
  C37      1.0000 0.00951  0.80627  0.08190  Biso   1.000  C
  C38      1.0000 0.27449  0.93470  0.08394  Biso   1.000  C
  C39      1.0000 0.20643  0.79860  0.08418  Biso   1.000  C
  C40      1.0000 0.47765  0.94087  0.08348  Biso   1.000  C
  C41      1.0000 0.41100  0.80625  0.08427  Biso   1.000  C
  C42      1.0000 0.68139  0.94692  0.08320  Biso   1.000  C
  C43      1.0000 0.61441  0.81251  0.08363  Biso   1.000  C
  C44      1.0000 0.87981  0.94693  0.08280  Biso   1.000  C
  N1       1.0000 0.87334  0.34807  0.08006  Biso   1.000  N
  N2       1.0000 0.08896  0.34811  0.08320  Biso   1.000  N
  N3       1.0000 0.00117  0.60347  0.08110  Biso   1.000  N
  N4       1.0000 0.21638  0.60334  0.08536  Biso   1.000  N
  Co1      1.0000 0.04475  0.47540  0.08968  Biso   1.000  Co
  O1       1.0000 0.03071  0.46048  0.20761  Biso   1.000  O
  H1       1.0000 0.10242  0.52706  0.23441  Biso   1.000  H
  C45      1.0000 0.82515  0.41065  0.28219  Biso   1.000  C
  H2       1.0000 0.84994  0.41459  0.34076  Biso   1.000  H
  H3       1.0000 0.94701  0.44032  0.23945  Biso   1.000  H
  H4       1.0000 0.75861  0.31698  0.26140  Biso   1.000  H
  O2       1.0000 0.78821  0.49569  0.25999  Biso   1.000  O
  H5       1.0000 0.83780  0.57470  0.28652  Biso   1.000  H
