data_image0
_cell_length_a       7.36011
_cell_length_b       7.36001
_cell_length_c       18.5212
_cell_angle_alpha    90
_cell_angle_beta     90
_cell_angle_gamma    120.001

_symmetry_space_group_name_H-M    "P 1"
_symmetry_int_tables_number       1

loop_
  _symmetry_equiv_pos_as_xyz
  'x, y, z'

loop_
  _atom_site_label
  _atom_site_occupancy
  _atom_site_fract_x
  _atom_site_fract_y
  _atom_site_fract_z
  _atom_site_thermal_displace_type
  _atom_site_B_iso_or_equiv
  _atom_site_type_symbol
  C1       1.0000 0.99715  0.00189  0.99717  Biso   1.000  C
  C2       1.0000 0.10793  0.89075  0.99612  Biso   1.000  C
  C3       1.0000 0.99560  0.33428  0.00207  Biso   1.000  C
  C4       1.0000 0.10720  0.22277  0.00325  Biso   1.000  C
  C5       1.0000 0.99668  0.66839  0.99578  Biso   1.000  C
  C6       1.0000 0.10542  0.55715  0.00157  Biso   1.000  C
  C7       1.0000 0.32984  0.00197  0.99719  Biso   1.000  C
  C8       1.0000 0.44004  0.89110  0.00222  Biso   1.000  C
  C9       1.0000 0.32421  0.32350  0.01518  Biso   1.000  C
  C10      1.0000 0.44065  0.22284  0.00337  Biso   1.000  C
  C11      1.0000 0.32148  0.67336  0.01310  Biso   1.000  C
  C12      1.0000 0.66310  0.00107  0.00194  Biso   1.000  C
  C13      1.0000 0.77616  0.89101  0.00232  Biso   1.000  C
  C14      1.0000 0.66372  0.33434  0.00225  Biso   1.000  C
  C15      1.0000 0.77395  0.22290  0.99974  Biso   1.000  C
  C16      1.0000 0.67698  0.67352  0.01362  Biso   1.000  C
  C17      1.0000 0.77679  0.55731  0.00193  Biso   1.000  C
  Cr1      1.0000 0.44344  0.56399  0.07460  Biso   1.000  Cr
  O1       1.0000 0.42321  0.53806  0.16922  Biso   1.000  O
  C18      1.0000 0.58910  0.89687  0.23022  Biso   1.000  C
  H1       1.0000 0.62395  0.87446  0.28577  Biso   1.000  H
  H2       1.0000 0.49876  0.70076  0.20160  Biso   1.000  H
  H3       1.0000 0.46620  0.93757  0.22504  Biso   1.000  H
  O2       1.0000 0.76112  0.03361  0.18916  Biso   1.000  O
  H4       1.0000 0.88417  0.02596  0.20404  Biso   1.000  H
