data_image0
_cell_length_a       12.26
_cell_length_b       12.2622
_cell_length_c       18
_cell_angle_alpha    90
_cell_angle_beta     90
_cell_angle_gamma    119.994

_symmetry_space_group_name_H-M    "P 1"
_symmetry_int_tables_number       1

loop_
  _symmetry_equiv_pos_as_xyz
  'x, y, z'

loop_
  _atom_site_label
  _atom_site_occupancy
  _atom_site_fract_x
  _atom_site_fract_y
  _atom_site_fract_z
  _atom_site_thermal_displace_type
  _atom_site_B_iso_or_equiv
  _atom_site_type_symbol
  C1       1.0000 0.01140  0.01004  0.08689  Biso   1.000  C
  C2       1.0000 0.27665  0.13866  0.08518  Biso   1.000  C
  C3       1.0000 0.20917  0.00450  0.08683  Biso   1.000  C
  C4       1.0000 0.47454  0.13867  0.08546  Biso   1.000  C
  C5       1.0000 0.40780  0.00450  0.08685  Biso   1.000  C
  C6       1.0000 0.67716  0.14411  0.08732  Biso   1.000  C
  C7       1.0000 0.61112  0.01003  0.08720  Biso   1.000  C
  C8       1.0000 0.88223  0.15193  0.08876  Biso   1.000  C
  C9       1.0000 0.81448  0.01648  0.08772  Biso   1.000  C
  C10      1.0000 0.07945  0.14410  0.08640  Biso   1.000  C
  C11      1.0000 0.21199  0.20741  0.08471  Biso   1.000  C
  C12      1.0000 0.47645  0.34039  0.08278  Biso   1.000  C
  C13      1.0000 0.40939  0.20626  0.08425  Biso   1.000  C
  C14      1.0000 0.67333  0.34108  0.08456  Biso   1.000  C
  C15      1.0000 0.60795  0.20744  0.08563  Biso   1.000  C
  C16      1.0000 0.81171  0.21687  0.08905  Biso   1.000  C
  C17      1.0000 0.01769  0.21688  0.08782  Biso   1.000  C
  C18      1.0000 0.28023  0.34103  0.08315  Biso   1.000  C
  C19      1.0000 0.41245  0.40849  0.08229  Biso   1.000  C
  C20      1.0000 0.67530  0.54203  0.08328  Biso   1.000  C
  C21      1.0000 0.60856  0.40850  0.08301  Biso   1.000  C
  C22      1.0000 0.87326  0.54361  0.08705  Biso   1.000  C
  C23      1.0000 0.80499  0.40698  0.08690  Biso   1.000  C
  C24      1.0000 0.28284  0.54357  0.08495  Biso   1.000  C
  C25      1.0000 0.21446  0.40693  0.08458  Biso   1.000  C
  C26      1.0000 0.47922  0.54201  0.08258  Biso   1.000  C
  C27      1.0000 0.61133  0.61015  0.08328  Biso   1.000  C
  C28      1.0000 0.87572  0.74316  0.08607  Biso   1.000  C
  C29      1.0000 0.80750  0.60951  0.08496  Biso   1.000  C
  C30      1.0000 0.07016  0.73392  0.08912  Biso   1.000  C
  C31      1.0000 0.27624  0.73393  0.08831  Biso   1.000  C
  C32      1.0000 0.47995  0.74317  0.08541  Biso   1.000  C
  C33      1.0000 0.41451  0.60952  0.08369  Biso   1.000  C
  C34      1.0000 0.67839  0.74427  0.08491  Biso   1.000  C
  C35      1.0000 0.81112  0.81196  0.08596  Biso   1.000  C
  C36      1.0000 0.07632  0.94066  0.08708  Biso   1.000  C
  C37      1.0000 0.00830  0.80660  0.08744  Biso   1.000  C
  C38      1.0000 0.27339  0.93430  0.08759  Biso   1.000  C
  C39      1.0000 0.20566  0.79883  0.08889  Biso   1.000  C
  C40      1.0000 0.47682  0.94066  0.08702  Biso   1.000  C
  C41      1.0000 0.41079  0.80659  0.08685  Biso   1.000  C
  C42      1.0000 0.68008  0.94617  0.08719  Biso   1.000  C
  C43      1.0000 0.61334  0.81196  0.08583  Biso   1.000  C
  C44      1.0000 0.87857  0.94617  0.08703  Biso   1.000  C
  N1       1.0000 0.86953  0.34492  0.08983  Biso   1.000  N
  N2       1.0000 0.08785  0.34489  0.08741  Biso   1.000  N
  N3       1.0000 0.99994  0.60578  0.09005  Biso   1.000  N
  N4       1.0000 0.21830  0.60572  0.08840  Biso   1.000  N
  Cu1      1.0000 0.04432  0.47523  0.11260  Biso   1.000  Cu
  O1       1.0000 0.04271  0.46486  0.22278  Biso   1.000  O
  H1       1.0000 0.09732  0.54662  0.24537  Biso   1.000  H
