data_image0
_cell_length_a       7.36011
_cell_length_b       7.36001
_cell_length_c       18.5212
_cell_angle_alpha    90
_cell_angle_beta     90
_cell_angle_gamma    120.001

_symmetry_space_group_name_H-M    "P 1"
_symmetry_int_tables_number       1

loop_
  _symmetry_equiv_pos_as_xyz
  'x, y, z'

loop_
  _atom_site_label
  _atom_site_occupancy
  _atom_site_fract_x
  _atom_site_fract_y
  _atom_site_fract_z
  _atom_site_thermal_displace_type
  _atom_site_B_iso_or_equiv
  _atom_site_type_symbol
  C1       1.0000 0.99201  0.99216  0.99986  Biso   1.000  C
  C2       1.0000 0.10305  0.88131  0.99912  Biso   1.000  C
  C3       1.0000 0.99230  0.32593  0.00459  Biso   1.000  C
  C4       1.0000 0.10206  0.21301  0.00484  Biso   1.000  C
  C5       1.0000 0.99212  0.65947  0.99992  Biso   1.000  C
  C6       1.0000 0.10207  0.54871  0.00520  Biso   1.000  C
  C7       1.0000 0.32511  0.99228  0.99935  Biso   1.000  C
  C8       1.0000 0.43647  0.88358  0.00483  Biso   1.000  C
  C9       1.0000 0.32009  0.31223  0.01443  Biso   1.000  C
  C10      1.0000 0.43663  0.21240  0.00431  Biso   1.000  C
  C11      1.0000 0.31990  0.66719  0.01521  Biso   1.000  C
  C12      1.0000 0.65919  0.99326  0.00462  Biso   1.000  C
  C13      1.0000 0.77097  0.88228  0.00494  Biso   1.000  C
  C14      1.0000 0.65930  0.32539  0.00440  Biso   1.000  C
  C15      1.0000 0.77039  0.21488  0.00233  Biso   1.000  C
  C16      1.0000 0.67085  0.66495  0.01496  Biso   1.000  C
  C17      1.0000 0.77116  0.54818  0.00477  Biso   1.000  C
  Fe1      1.0000 0.43332  0.54536  0.06959  Biso   1.000  Fe
  O1       1.0000 0.46476  0.55369  0.15590  Biso   1.000  O
