data_image0
_cell_length_a       12.26
_cell_length_b       12.2622
_cell_length_c       18
_cell_angle_alpha    90
_cell_angle_beta     90
_cell_angle_gamma    119.994

_symmetry_space_group_name_H-M    "P 1"
_symmetry_int_tables_number       1

loop_
  _symmetry_equiv_pos_as_xyz
  'x, y, z'

loop_
  _atom_site_label
  _atom_site_occupancy
  _atom_site_fract_x
  _atom_site_fract_y
  _atom_site_fract_z
  _atom_site_thermal_displace_type
  _atom_site_B_iso_or_equiv
  _atom_site_type_symbol
  C1       1.0000 0.01377  0.01267  0.08324  Biso   1.000  C
  C2       1.0000 0.27875  0.14117  0.08264  Biso   1.000  C
  C3       1.0000 0.21139  0.00661  0.08323  Biso   1.000  C
  C4       1.0000 0.47697  0.14118  0.08155  Biso   1.000  C
  C5       1.0000 0.40978  0.00663  0.08308  Biso   1.000  C
  C6       1.0000 0.68008  0.14720  0.08191  Biso   1.000  C
  C7       1.0000 0.61335  0.01263  0.08290  Biso   1.000  C
  C8       1.0000 0.88470  0.15500  0.08475  Biso   1.000  C
  C9       1.0000 0.81669  0.01895  0.08365  Biso   1.000  C
  C10      1.0000 0.08161  0.14721  0.08399  Biso   1.000  C
  C11      1.0000 0.21446  0.20989  0.08329  Biso   1.000  C
  C12      1.0000 0.47869  0.34274  0.08016  Biso   1.000  C
  C13      1.0000 0.41160  0.20863  0.08135  Biso   1.000  C
  C14      1.0000 0.67523  0.34349  0.07864  Biso   1.000  C
  C15      1.0000 0.60999  0.20992  0.08054  Biso   1.000  C
  C16      1.0000 0.81464  0.22008  0.08308  Biso   1.000  C
  C17      1.0000 0.01988  0.22006  0.08547  Biso   1.000  C
  C18      1.0000 0.28282  0.34343  0.08305  Biso   1.000  C
  C19      1.0000 0.41517  0.41114  0.08128  Biso   1.000  C
  C20      1.0000 0.67715  0.54435  0.07838  Biso   1.000  C
  C21      1.0000 0.61059  0.41118  0.07855  Biso   1.000  C
  C22      1.0000 0.87380  0.54522  0.07929  Biso   1.000  C
  C23      1.0000 0.80632  0.41034  0.07911  Biso   1.000  C
  C24      1.0000 0.28597  0.54514  0.08496  Biso   1.000  C
  C25      1.0000 0.21863  0.41035  0.08500  Biso   1.000  C
  C26      1.0000 0.48179  0.54432  0.08119  Biso   1.000  C
  C27      1.0000 0.61368  0.61275  0.07992  Biso   1.000  C
  C28      1.0000 0.87780  0.74553  0.08036  Biso   1.000  C
  C29      1.0000 0.80952  0.61203  0.07846  Biso   1.000  C
  C30      1.0000 0.07228  0.73533  0.08332  Biso   1.000  C
  C31      1.0000 0.27753  0.73536  0.08549  Biso   1.000  C
  C32      1.0000 0.48226  0.74556  0.08314  Biso   1.000  C
  C33      1.0000 0.41710  0.61203  0.08296  Biso   1.000  C
  C34      1.0000 0.68067  0.74682  0.08104  Biso   1.000  C
  C35      1.0000 0.81349  0.81430  0.08129  Biso   1.000  C
  C36      1.0000 0.07847  0.94279  0.08291  Biso   1.000  C
  C37      1.0000 0.01064  0.80823  0.08192  Biso   1.000  C
  C38      1.0000 0.27545  0.93643  0.08380  Biso   1.000  C
  C39      1.0000 0.20746  0.80046  0.08488  Biso   1.000  C
  C40      1.0000 0.47879  0.94277  0.08330  Biso   1.000  C
  C41      1.0000 0.41205  0.80822  0.08397  Biso   1.000  C
  C42      1.0000 0.68249  0.94881  0.08307  Biso   1.000  C
  C43      1.0000 0.61531  0.81430  0.08240  Biso   1.000  C
  C44      1.0000 0.88083  0.94881  0.08290  Biso   1.000  C
  N1       1.0000 0.87426  0.35016  0.08272  Biso   1.000  N
  N2       1.0000 0.09029  0.35016  0.08734  Biso   1.000  N
  N3       1.0000 0.00189  0.60530  0.08317  Biso   1.000  N
  N4       1.0000 0.21785  0.60530  0.08725  Biso   1.000  N
  Fe1      1.0000 0.04558  0.47769  0.09610  Biso   1.000  Fe
  O1       1.0000 0.03101  0.47333  0.21398  Biso   1.000  O
  H1       1.0000 0.08148  0.44308  0.23930  Biso   1.000  H
  C45      1.0000 0.81189  0.40110  0.28087  Biso   1.000  C
  H2       1.0000 0.82798  0.39938  0.34053  Biso   1.000  H
  H3       1.0000 0.94043  0.43329  0.24329  Biso   1.000  H
  H4       1.0000 0.73850  0.31174  0.25836  Biso   1.000  H
  O2       1.0000 0.79090  0.49723  0.25781  Biso   1.000  O
  H5       1.0000 0.85072  0.57479  0.28273  Biso   1.000  H
