data_image0
_cell_length_a       12.26
_cell_length_b       12.2622
_cell_length_c       18
_cell_angle_alpha    90
_cell_angle_beta     90
_cell_angle_gamma    119.994

_symmetry_space_group_name_H-M    "P 1"
_symmetry_int_tables_number       1

loop_
  _symmetry_equiv_pos_as_xyz
  'x, y, z'

loop_
  _atom_site_label
  _atom_site_occupancy
  _atom_site_fract_x
  _atom_site_fract_y
  _atom_site_fract_z
  _atom_site_thermal_displace_type
  _atom_site_B_iso_or_equiv
  _atom_site_type_symbol
  C1       1.0000 0.01215  0.01165  0.08444  Biso   1.000  C
  C2       1.0000 0.27729  0.14010  0.08356  Biso   1.000  C
  C3       1.0000 0.20980  0.00563  0.08407  Biso   1.000  C
  C4       1.0000 0.47525  0.14005  0.08154  Biso   1.000  C
  C5       1.0000 0.40824  0.00562  0.08343  Biso   1.000  C
  C6       1.0000 0.67848  0.14621  0.08170  Biso   1.000  C
  C7       1.0000 0.61188  0.01159  0.08323  Biso   1.000  C
  C8       1.0000 0.88316  0.15405  0.08568  Biso   1.000  C
  C9       1.0000 0.81518  0.01795  0.08468  Biso   1.000  C
  C10      1.0000 0.08013  0.14629  0.08542  Biso   1.000  C
  C11      1.0000 0.21284  0.20884  0.08466  Biso   1.000  C
  C12      1.0000 0.47707  0.34169  0.08081  Biso   1.000  C
  C13      1.0000 0.41004  0.20768  0.08186  Biso   1.000  C
  C14      1.0000 0.67368  0.34250  0.07803  Biso   1.000  C
  C15      1.0000 0.60845  0.20886  0.08000  Biso   1.000  C
  C16      1.0000 0.81311  0.21906  0.08321  Biso   1.000  C
  C17      1.0000 0.01826  0.21905  0.08713  Biso   1.000  C
  C18      1.0000 0.28126  0.34256  0.08473  Biso   1.000  C
  C19      1.0000 0.41352  0.41011  0.08261  Biso   1.000  C
  C20      1.0000 0.67563  0.54339  0.07915  Biso   1.000  C
  C21      1.0000 0.60898  0.41013  0.07867  Biso   1.000  C
  C22      1.0000 0.87227  0.54417  0.07957  Biso   1.000  C
  C23      1.0000 0.80478  0.40932  0.07869  Biso   1.000  C
  C24      1.0000 0.28431  0.54414  0.08745  Biso   1.000  C
  C25      1.0000 0.21700  0.40934  0.08736  Biso   1.000  C
  C26      1.0000 0.48010  0.54340  0.08269  Biso   1.000  C
  C27      1.0000 0.61212  0.61181  0.08125  Biso   1.000  C
  C28      1.0000 0.87639  0.74466  0.08151  Biso   1.000  C
  C29      1.0000 0.80791  0.61099  0.07929  Biso   1.000  C
  C30      1.0000 0.07080  0.73433  0.08432  Biso   1.000  C
  C31      1.0000 0.27586  0.73435  0.08723  Biso   1.000  C
  C32      1.0000 0.48067  0.74465  0.08463  Biso   1.000  C
  C33      1.0000 0.41543  0.61091  0.08479  Biso   1.000  C
  C34      1.0000 0.67911  0.74585  0.08251  Biso   1.000  C
  C35      1.0000 0.81192  0.81341  0.08264  Biso   1.000  C
  C36      1.0000 0.07705  0.94185  0.08394  Biso   1.000  C
  C37      1.0000 0.00902  0.80721  0.08292  Biso   1.000  C
  C38      1.0000 0.27397  0.93549  0.08454  Biso   1.000  C
  C39      1.0000 0.20589  0.79944  0.08603  Biso   1.000  C
  C40      1.0000 0.47717  0.94178  0.08379  Biso   1.000  C
  C41      1.0000 0.41051  0.80713  0.08517  Biso   1.000  C
  C42      1.0000 0.68088  0.94786  0.08396  Biso   1.000  C
  C43      1.0000 0.61390  0.81336  0.08373  Biso   1.000  C
  C44      1.0000 0.87936  0.94787  0.08418  Biso   1.000  C
  N1       1.0000 0.87244  0.34896  0.08256  Biso   1.000  N
  N2       1.0000 0.08873  0.34903  0.08986  Biso   1.000  N
  N3       1.0000 0.00024  0.60442  0.08390  Biso   1.000  N
  N4       1.0000 0.21631  0.60434  0.09016  Biso   1.000  N
  Fe1      1.0000 0.04352  0.47647  0.09787  Biso   1.000  Fe
  O1       1.0000 0.01626  0.46853  0.21682  Biso   1.000  O
  H1       1.0000 0.06547  0.44413  0.24809  Biso   1.000  H
  C45      1.0000 0.78022  0.38764  0.27269  Biso   1.000  C
  H2       1.0000 0.78008  0.38697  0.33291  Biso   1.000  H
  H3       1.0000 0.72127  0.29680  0.24659  Biso   1.000  H
  H4       1.0000 0.77645  0.46617  0.24737  Biso   1.000  H
  H5       1.0000 0.92660  0.43186  0.24189  Biso   1.000  H
