data_image0
_cell_length_a       12.26
_cell_length_b       12.2622
_cell_length_c       18
_cell_angle_alpha    90
_cell_angle_beta     90
_cell_angle_gamma    119.994

_symmetry_space_group_name_H-M    "P 1"
_symmetry_int_tables_number       1

loop_
  _symmetry_equiv_pos_as_xyz
  'x, y, z'

loop_
  _atom_site_label
  _atom_site_occupancy
  _atom_site_fract_x
  _atom_site_fract_y
  _atom_site_fract_z
  _atom_site_thermal_displace_type
  _atom_site_B_iso_or_equiv
  _atom_site_type_symbol
  C1       1.0000 0.01141  0.01140  0.08691  Biso   1.000  C
  C2       1.0000 0.27647  0.13975  0.08558  Biso   1.000  C
  C3       1.0000 0.20902  0.00525  0.08700  Biso   1.000  C
  C4       1.0000 0.47449  0.13970  0.08605  Biso   1.000  C
  C5       1.0000 0.40740  0.00521  0.08784  Biso   1.000  C
  C6       1.0000 0.67781  0.14587  0.08735  Biso   1.000  C
  C7       1.0000 0.61109  0.01126  0.08785  Biso   1.000  C
  C8       1.0000 0.88243  0.15371  0.08983  Biso   1.000  C
  C9       1.0000 0.81433  0.01747  0.08817  Biso   1.000  C
  C10      1.0000 0.07927  0.14609  0.08718  Biso   1.000  C
  C11      1.0000 0.21199  0.20851  0.08577  Biso   1.000  C
  C12      1.0000 0.47633  0.34135  0.08373  Biso   1.000  C
  C13      1.0000 0.40925  0.20725  0.08485  Biso   1.000  C
  C14      1.0000 0.67312  0.34218  0.08457  Biso   1.000  C
  C15      1.0000 0.60770  0.20848  0.08589  Biso   1.000  C
  C16      1.0000 0.81248  0.21882  0.08912  Biso   1.000  C
  C17      1.0000 0.01738  0.21887  0.08961  Biso   1.000  C
  C18      1.0000 0.28038  0.34217  0.08542  Biso   1.000  C
  C19      1.0000 0.41255  0.40960  0.08400  Biso   1.000  C
  C20      1.0000 0.67509  0.54311  0.08338  Biso   1.000  C
  C21      1.0000 0.60833  0.40959  0.08346  Biso   1.000  C
  C22      1.0000 0.87183  0.54374  0.08584  Biso   1.000  C
  C23      1.0000 0.80439  0.40893  0.08609  Biso   1.000  C
  C24      1.0000 0.28335  0.54367  0.08885  Biso   1.000  C
  C25      1.0000 0.21601  0.40907  0.08819  Biso   1.000  C
  C26      1.0000 0.47932  0.54314  0.08447  Biso   1.000  C
  C27      1.0000 0.61137  0.61139  0.08402  Biso   1.000  C
  C28      1.0000 0.87562  0.74421  0.08509  Biso   1.000  C
  C29      1.0000 0.80732  0.61051  0.08418  Biso   1.000  C
  C30      1.0000 0.07007  0.73389  0.08888  Biso   1.000  C
  C31      1.0000 0.27490  0.73384  0.09095  Biso   1.000  C
  C32      1.0000 0.47988  0.74420  0.08742  Biso   1.000  C
  C33      1.0000 0.41462  0.61058  0.08664  Biso   1.000  C
  C34      1.0000 0.67838  0.74548  0.08511  Biso   1.000  C
  C35      1.0000 0.81121  0.81301  0.08546  Biso   1.000  C
  C36      1.0000 0.07623  0.94145  0.08677  Biso   1.000  C
  C37      1.0000 0.00831  0.80682  0.08656  Biso   1.000  C
  C38      1.0000 0.27317  0.93520  0.08852  Biso   1.000  C
  C39      1.0000 0.20504  0.79898  0.09049  Biso   1.000  C
  C40      1.0000 0.47633  0.94132  0.08825  Biso   1.000  C
  C41      1.0000 0.40958  0.80665  0.08887  Biso   1.000  C
  C42      1.0000 0.68013  0.94745  0.08767  Biso   1.000  C
  C43      1.0000 0.61309  0.81296  0.08658  Biso   1.000  C
  C44      1.0000 0.87859  0.94749  0.08703  Biso   1.000  C
  N1       1.0000 0.87221  0.34883  0.08945  Biso   1.000  N
  N2       1.0000 0.08789  0.34930  0.09111  Biso   1.000  N
  N3       1.0000 0.99977  0.60387  0.08890  Biso   1.000  N
  N4       1.0000 0.21498  0.60345  0.09209  Biso   1.000  N
  Fe1      1.0000 0.04352  0.47638  0.10543  Biso   1.000  Fe
  O1       1.0000 0.03534  0.47717  0.20696  Biso   1.000  O
  H1       1.0000 0.11122  0.48346  0.22882  Biso   1.000  H
