data_image0
_cell_length_a       5.8028
_cell_length_b       6.3014
_cell_length_c       30
_cell_angle_alpha    90
_cell_angle_beta     90
_cell_angle_gamma    90

_symmetry_space_group_name_H-M    "P 1"
_symmetry_int_tables_number       1

loop_
  _symmetry_equiv_pos_as_xyz
  'x, y, z'

loop_
  _atom_site_label
  _atom_site_occupancy
  _atom_site_fract_x
  _atom_site_fract_y
  _atom_site_fract_z
  _atom_site_thermal_displace_type
  _atom_site_B_iso_or_equiv
  _atom_site_type_symbol
  O1       1.0000 0.00000  0.99997  0.06659  Biso   1.000  O
  O2       1.0000 0.50000  0.99997  0.06659  Biso   1.000  O
  O3       1.0000 0.25000  0.30653  0.10502  Biso   1.000  O
  O4       1.0000 0.25000  0.69347  0.10502  Biso   1.000  O
  O5       1.0000 0.75000  0.30653  0.10502  Biso   1.000  O
  O6       1.0000 0.75000  0.69347  0.10502  Biso   1.000  O
  Ge1      1.0000 0.00000  0.50000  0.10502  Biso   1.000  Ge
  Ge2      1.0000 0.25000  0.00000  0.10502  Biso   1.000  Ge
  Ge3      1.0000 0.50000  0.50000  0.10502  Biso   1.000  Ge
  Ge4      1.0000 0.75000  0.00000  0.10502  Biso   1.000  Ge
  O7       1.0000 0.00000  0.00000  0.14566  Biso   1.000  O
  O8       1.0000 0.50000  0.00000  0.14566  Biso   1.000  O
  O9       1.0000 0.00000  0.50000  0.16941  Biso   1.000  O
  O10      1.0000 0.50000  0.50000  0.16941  Biso   1.000  O
  O11      1.0000 0.25000  0.19347  0.21005  Biso   1.000  O
  O12      1.0000 0.25000  0.80653  0.21005  Biso   1.000  O
  O13      1.0000 0.75000  0.19347  0.21005  Biso   1.000  O
  O14      1.0000 0.75000  0.80653  0.21005  Biso   1.000  O
  Ge5      1.0000 0.00000  0.00000  0.21005  Biso   1.000  Ge
  Ge6      1.0000 0.25000  0.50000  0.21005  Biso   1.000  Ge
  Ge7      1.0000 0.50000  0.00000  0.21005  Biso   1.000  Ge
  Ge8      1.0000 0.75000  0.50000  0.21005  Biso   1.000  Ge
  O15      1.0000 0.00000  0.50000  0.25069  Biso   1.000  O
  O16      1.0000 0.50000  0.50000  0.25069  Biso   1.000  O
  O17      1.0000 0.49974  0.99958  0.27454  Biso   1.000  O
  O18      1.0000 0.99974  0.99958  0.27454  Biso   1.000  O
  Ge9      1.0000 0.24965  0.99956  0.31372  Biso   1.000  Ge
  Ge10     1.0000 0.74965  0.99956  0.31372  Biso   1.000  Ge
  O19      1.0000 0.24965  0.69535  0.31574  Biso   1.000  O
  O20      1.0000 0.74965  0.69535  0.31574  Biso   1.000  O
  O21      1.0000 0.24965  0.30369  0.31575  Biso   1.000  O
  O22      1.0000 0.74965  0.30369  0.31575  Biso   1.000  O
  Ge11     1.0000 0.49965  0.49960  0.31828  Biso   1.000  Ge
  Ge12     1.0000 0.99965  0.49960  0.31828  Biso   1.000  Ge
  O23      1.0000 0.49952  0.99939  0.35578  Biso   1.000  O
  O24      1.0000 0.99952  0.99939  0.35578  Biso   1.000  O
  O25      1.0000 0.49937  0.49954  0.38147  Biso   1.000  O
  O26      1.0000 0.99937  0.49954  0.38147  Biso   1.000  O
  Ge13     1.0000 0.49936  1.00000  0.41665  Biso   1.000  Ge
  Ge14     1.0000 0.99936  1.00000  0.41665  Biso   1.000  Ge
  O27      1.0000 0.24947  0.81489  0.42640  Biso   1.000  O
  O28      1.0000 0.74947  0.81489  0.42640  Biso   1.000  O
  O29      1.0000 0.24910  0.18498  0.42646  Biso   1.000  O
  O30      1.0000 0.74910  0.18498  0.42646  Biso   1.000  O
  Ge15     1.0000 0.24872  0.50002  0.42793  Biso   1.000  Ge
  Ge16     1.0000 0.74872  0.50002  0.42793  Biso   1.000  Ge
  O31      1.0000 0.49872  0.50003  0.46417  Biso   1.000  O
  O32      1.0000 0.99872  0.50003  0.46417  Biso   1.000  O
