data_image0
_cell_length_a       5.8028
_cell_length_b       6.3014
_cell_length_c       30
_cell_angle_alpha    90
_cell_angle_beta     90
_cell_angle_gamma    90

_symmetry_space_group_name_H-M    "P 1"
_symmetry_int_tables_number       1

loop_
  _symmetry_equiv_pos_as_xyz
  'x, y, z'

loop_
  _atom_site_label
  _atom_site_occupancy
  _atom_site_fract_x
  _atom_site_fract_y
  _atom_site_fract_z
  _atom_site_thermal_displace_type
  _atom_site_B_iso_or_equiv
  _atom_site_type_symbol
  O1       1.0000 0.99999  0.00007  0.06645  Biso   1.000  O
  O2       1.0000 0.49999  0.00008  0.06645  Biso   1.000  O
  O3       1.0000 0.25000  0.30653  0.10502  Biso   1.000  O
  O4       1.0000 0.25000  0.69347  0.10502  Biso   1.000  O
  O5       1.0000 0.75000  0.30653  0.10502  Biso   1.000  O
  O6       1.0000 0.75000  0.69347  0.10502  Biso   1.000  O
  Ge1      1.0000 0.00000  0.50000  0.10502  Biso   1.000  Ge
  Ge2      1.0000 0.25000  0.00000  0.10502  Biso   1.000  Ge
  Ge3      1.0000 0.50000  0.50000  0.10502  Biso   1.000  Ge
  Ge4      1.0000 0.75000  0.00000  0.10502  Biso   1.000  Ge
  O7       1.0000 0.00000  0.00000  0.14566  Biso   1.000  O
  O8       1.0000 0.50000  0.00000  0.14566  Biso   1.000  O
  O9       1.0000 0.00000  0.50000  0.16941  Biso   1.000  O
  O10      1.0000 0.50000  0.50000  0.16941  Biso   1.000  O
  O11      1.0000 0.25000  0.19347  0.21005  Biso   1.000  O
  O12      1.0000 0.25000  0.80653  0.21005  Biso   1.000  O
  O13      1.0000 0.75000  0.19347  0.21005  Biso   1.000  O
  O14      1.0000 0.75000  0.80653  0.21005  Biso   1.000  O
  Ge5      1.0000 0.00000  0.00000  0.21005  Biso   1.000  Ge
  Ge6      1.0000 0.25000  0.50000  0.21005  Biso   1.000  Ge
  Ge7      1.0000 0.50000  0.00000  0.21005  Biso   1.000  Ge
  Ge8      1.0000 0.75000  0.50000  0.21005  Biso   1.000  Ge
  O15      1.0000 0.00000  0.50000  0.25069  Biso   1.000  O
  O16      1.0000 0.50000  0.50000  0.25069  Biso   1.000  O
  O17      1.0000 0.49894  0.99821  0.27428  Biso   1.000  O
  O18      1.0000 0.99883  0.99771  0.27462  Biso   1.000  O
  Ge9      1.0000 0.24705  0.00086  0.31401  Biso   1.000  Ge
  Ge10     1.0000 0.75014  0.00234  0.31384  Biso   1.000  Ge
  O19      1.0000 0.24872  0.69643  0.31654  Biso   1.000  O
  O20      1.0000 0.74814  0.69703  0.31716  Biso   1.000  O
  O21      1.0000 0.24793  0.30492  0.31413  Biso   1.000  O
  O22      1.0000 0.74910  0.30603  0.31428  Biso   1.000  O
  Ge11     1.0000 0.49816  0.49883  0.31816  Biso   1.000  Ge
  Ge12     1.0000 0.99858  0.49933  0.31869  Biso   1.000  Ge
  O23      1.0000 0.49881  0.01205  0.35456  Biso   1.000  O
  O24      1.0000 0.99812  0.00946  0.35709  Biso   1.000  O
  O25      1.0000 0.49632  0.48189  0.38130  Biso   1.000  O
  O26      1.0000 0.99982  0.48628  0.38136  Biso   1.000  O
  Ge13     1.0000 0.50520  0.99153  0.41441  Biso   1.000  Ge
  Ge14     1.0000 0.98814  0.98290  0.42000  Biso   1.000  Ge
  O27      1.0000 0.25642  0.81185  0.41570  Biso   1.000  O
  O28      1.0000 0.74201  0.80436  0.42279  Biso   1.000  O
  O29      1.0000 0.27086  0.18878  0.43133  Biso   1.000  O
  O30      1.0000 0.74183  0.17977  0.42584  Biso   1.000  O
  Ge15     1.0000 0.25279  0.51618  0.42776  Biso   1.000  Ge
  Ge16     1.0000 0.75048  0.48807  0.42774  Biso   1.000  Ge
  O31      1.0000 0.50181  0.51470  0.46409  Biso   1.000  O
  O32      1.0000 0.00183  0.51994  0.46299  Biso   1.000  O
  O33      1.0000 0.13205  0.09189  0.46991  Biso   1.000  O
