data_image0
_cell_length_a       5.8028
_cell_length_b       6.3014
_cell_length_c       30
_cell_angle_alpha    90
_cell_angle_beta     90
_cell_angle_gamma    90

_symmetry_space_group_name_H-M    "P 1"
_symmetry_int_tables_number       1

loop_
  _symmetry_equiv_pos_as_xyz
  'x, y, z'

loop_
  _atom_site_label
  _atom_site_occupancy
  _atom_site_fract_x
  _atom_site_fract_y
  _atom_site_fract_z
  _atom_site_thermal_displace_type
  _atom_site_B_iso_or_equiv
  _atom_site_type_symbol
  O1       1.0000 1.00000  0.99999  0.06648  Biso   1.000  O
  O2       1.0000 0.50000  1.00000  0.06647  Biso   1.000  O
  O3       1.0000 0.25000  0.30653  0.10502  Biso   1.000  O
  O4       1.0000 0.25000  0.69347  0.10502  Biso   1.000  O
  O5       1.0000 0.75000  0.30653  0.10502  Biso   1.000  O
  O6       1.0000 0.75000  0.69347  0.10502  Biso   1.000  O
  Ge1      1.0000 0.00000  0.50000  0.10502  Biso   1.000  Ge
  Ge2      1.0000 0.25000  0.00000  0.10502  Biso   1.000  Ge
  Ge3      1.0000 0.50000  0.50000  0.10502  Biso   1.000  Ge
  Ge4      1.0000 0.75000  0.00000  0.10502  Biso   1.000  Ge
  O7       1.0000 0.00000  0.00000  0.14566  Biso   1.000  O
  O8       1.0000 0.50000  0.00000  0.14566  Biso   1.000  O
  O9       1.0000 0.00000  0.50000  0.16941  Biso   1.000  O
  O10      1.0000 0.50000  0.50000  0.16941  Biso   1.000  O
  O11      1.0000 0.25000  0.19347  0.21005  Biso   1.000  O
  O12      1.0000 0.25000  0.80653  0.21005  Biso   1.000  O
  O13      1.0000 0.75000  0.19347  0.21005  Biso   1.000  O
  O14      1.0000 0.75000  0.80653  0.21005  Biso   1.000  O
  Ge5      1.0000 0.00000  0.00000  0.21005  Biso   1.000  Ge
  Ge6      1.0000 0.25000  0.50000  0.21005  Biso   1.000  Ge
  Ge7      1.0000 0.50000  0.00000  0.21005  Biso   1.000  Ge
  Ge8      1.0000 0.75000  0.50000  0.21005  Biso   1.000  Ge
  O15      1.0000 0.00000  0.50000  0.25069  Biso   1.000  O
  O16      1.0000 0.50000  0.50000  0.25069  Biso   1.000  O
  O17      1.0000 0.50003  0.00052  0.27557  Biso   1.000  O
  O18      1.0000 0.00019  0.00008  0.27349  Biso   1.000  O
  Ge9      1.0000 0.24245  0.00016  0.31548  Biso   1.000  Ge
  Ge10     1.0000 0.75770  0.00016  0.31540  Biso   1.000  Ge
  O19      1.0000 0.24909  0.69272  0.31629  Biso   1.000  O
  O20      1.0000 0.75085  0.69272  0.31621  Biso   1.000  O
  O21      1.0000 0.24877  0.30785  0.31645  Biso   1.000  O
  O22      1.0000 0.75113  0.30785  0.31641  Biso   1.000  O
  Ge11     1.0000 0.49992  0.50019  0.31574  Biso   1.000  Ge
  Ge12     1.0000 0.99991  0.50051  0.31687  Biso   1.000  Ge
  O23      1.0000 0.50022  0.00013  0.35570  Biso   1.000  O
  O24      1.0000 0.99995  0.99957  0.35596  Biso   1.000  O
  O25      1.0000 0.50026  0.50097  0.38045  Biso   1.000  O
  O26      1.0000 0.00008  0.50251  0.38513  Biso   1.000  O
  Ge13     1.0000 0.50020  0.00034  0.41526  Biso   1.000  Ge
  Ge14     1.0000 0.00031  0.99839  0.43791  Biso   1.000  Ge
  O27      1.0000 0.25627  0.81102  0.42687  Biso   1.000  O
  O28      1.0000 0.74485  0.81080  0.42689  Biso   1.000  O
  O29      1.0000 0.25449  0.18964  0.42616  Biso   1.000  O
  O30      1.0000 0.74577  0.18908  0.42658  Biso   1.000  O
  Ge15     1.0000 0.26132  0.49988  0.42431  Biso   1.000  Ge
  Ge16     1.0000 0.73939  0.49988  0.42440  Biso   1.000  Ge
  O31      1.0000 0.50022  0.49756  0.46418  Biso   1.000  O
  O32      1.0000 0.00040  0.50930  0.46729  Biso   1.000  O
  H1       1.0000 0.00058  0.40418  0.49107  Biso   1.000  H
  H2       1.0000 0.00979  0.84196  0.51554  Biso   1.000  H
  H3       1.0000 0.85159  0.08298  0.51630  Biso   1.000  H
  C1       1.0000 0.00568  0.00464  0.50344  Biso   1.000  C
  H4       1.0000 0.16135  0.08613  0.51465  Biso   1.000  H
