data_image0
_cell_length_a       5.8028
_cell_length_b       6.3014
_cell_length_c       30
_cell_angle_alpha    90
_cell_angle_beta     90
_cell_angle_gamma    90

_symmetry_space_group_name_H-M    "P 1"
_symmetry_int_tables_number       1

loop_
  _symmetry_equiv_pos_as_xyz
  'x, y, z'

loop_
  _atom_site_label
  _atom_site_occupancy
  _atom_site_fract_x
  _atom_site_fract_y
  _atom_site_fract_z
  _atom_site_thermal_displace_type
  _atom_site_B_iso_or_equiv
  _atom_site_type_symbol
  O1       1.0000 0.99999  0.00003  0.06649  Biso   1.000  O
  O2       1.0000 0.49999  0.00003  0.06649  Biso   1.000  O
  O3       1.0000 0.25000  0.30653  0.10502  Biso   1.000  O
  O4       1.0000 0.25000  0.69347  0.10502  Biso   1.000  O
  O5       1.0000 0.75000  0.30653  0.10502  Biso   1.000  O
  O6       1.0000 0.75000  0.69347  0.10502  Biso   1.000  O
  Ge1      1.0000 0.00000  0.50000  0.10502  Biso   1.000  Ge
  Ge2      1.0000 0.25000  0.00000  0.10502  Biso   1.000  Ge
  Ge3      1.0000 0.50000  0.50000  0.10502  Biso   1.000  Ge
  Ge4      1.0000 0.75000  0.00000  0.10502  Biso   1.000  Ge
  O7       1.0000 0.00000  0.00000  0.14566  Biso   1.000  O
  O8       1.0000 0.50000  0.00000  0.14566  Biso   1.000  O
  O9       1.0000 0.00000  0.50000  0.16941  Biso   1.000  O
  O10      1.0000 0.50000  0.50000  0.16941  Biso   1.000  O
  O11      1.0000 0.25000  0.19347  0.21005  Biso   1.000  O
  O12      1.0000 0.25000  0.80653  0.21005  Biso   1.000  O
  O13      1.0000 0.75000  0.19347  0.21005  Biso   1.000  O
  O14      1.0000 0.75000  0.80653  0.21005  Biso   1.000  O
  Ge5      1.0000 0.00000  0.00000  0.21005  Biso   1.000  Ge
  Ge6      1.0000 0.25000  0.50000  0.21005  Biso   1.000  Ge
  Ge7      1.0000 0.50000  0.00000  0.21005  Biso   1.000  Ge
  Ge8      1.0000 0.75000  0.50000  0.21005  Biso   1.000  Ge
  O15      1.0000 0.00000  0.50000  0.25069  Biso   1.000  O
  O16      1.0000 0.50000  0.50000  0.25069  Biso   1.000  O
  O17      1.0000 0.50147  0.00228  0.27451  Biso   1.000  O
  O18      1.0000 0.00170  0.00230  0.27447  Biso   1.000  O
  Ge9      1.0000 0.24965  0.99953  0.31426  Biso   1.000  Ge
  Ge10     1.0000 0.75470  0.99947  0.31419  Biso   1.000  Ge
  O19      1.0000 0.25115  0.69479  0.31455  Biso   1.000  O
  O20      1.0000 0.75327  0.69476  0.31449  Biso   1.000  O
  O21      1.0000 0.25205  0.30506  0.31661  Biso   1.000  O
  O22      1.0000 0.75232  0.30501  0.31654  Biso   1.000  O
  Ge11     1.0000 0.50223  0.50150  0.31716  Biso   1.000  Ge
  Ge12     1.0000 0.00222  0.50086  0.31768  Biso   1.000  Ge
  O23      1.0000 0.50306  0.99091  0.35466  Biso   1.000  O
  O24      1.0000 0.00298  0.99464  0.35684  Biso   1.000  O
  O25      1.0000 0.50341  0.51536  0.38059  Biso   1.000  O
  O26      1.0000 0.00339  0.51191  0.38172  Biso   1.000  O
  Ge13     1.0000 0.50524  0.00101  0.41470  Biso   1.000  Ge
  Ge14     1.0000 0.00469  0.00671  0.42148  Biso   1.000  Ge
  O27      1.0000 0.25677  0.81869  0.42828  Biso   1.000  O
  O28      1.0000 0.75190  0.81823  0.42790  Biso   1.000  O
  O29      1.0000 0.26201  0.19245  0.42051  Biso   1.000  O
  O30      1.0000 0.74818  0.19257  0.42082  Biso   1.000  O
  Ge15     1.0000 0.25679  0.50288  0.42573  Biso   1.000  Ge
  Ge16     1.0000 0.75129  0.50396  0.42598  Biso   1.000  Ge
  O31      1.0000 0.50363  0.49664  0.46356  Biso   1.000  O
  O32      1.0000 0.00430  0.48693  0.46399  Biso   1.000  O
  O33      1.0000 0.99239  0.08164  0.49015  Biso   1.000  O
  H1       1.0000 0.99268  0.24231  0.48723  Biso   1.000  H
  H2       1.0000 0.18560  0.84764  0.52027  Biso   1.000  H
  H3       1.0000 0.10526  0.06473  0.55529  Biso   1.000  H
  C1       1.0000 0.16646  0.01911  0.52224  Biso   1.000  C
  H4       1.0000 0.33051  0.09823  0.51536  Biso   1.000  H
