data_image0
_cell_length_a       7.36011
_cell_length_b       7.36001
_cell_length_c       18.5212
_cell_angle_alpha    90
_cell_angle_beta     90
_cell_angle_gamma    120.001

_symmetry_space_group_name_H-M    "P 1"
_symmetry_int_tables_number       1

loop_
  _symmetry_equiv_pos_as_xyz
  'x, y, z'

loop_
  _atom_site_label
  _atom_site_occupancy
  _atom_site_fract_x
  _atom_site_fract_y
  _atom_site_fract_z
  _atom_site_thermal_displace_type
  _atom_site_B_iso_or_equiv
  _atom_site_type_symbol
  C1       1.0000 0.99160  0.98875  0.99992  Biso   1.000  C
  C2       1.0000 0.10253  0.87782  0.99965  Biso   1.000  C
  C3       1.0000 0.99052  0.32176  0.00411  Biso   1.000  C
  C4       1.0000 0.10129  0.20956  0.00487  Biso   1.000  C
  C5       1.0000 0.99141  0.65560  0.99989  Biso   1.000  C
  C6       1.0000 0.10058  0.54421  0.00469  Biso   1.000  C
  C7       1.0000 0.32441  0.98881  0.00009  Biso   1.000  C
  C8       1.0000 0.43557  0.87894  0.00468  Biso   1.000  C
  C9       1.0000 0.31870  0.31026  0.01498  Biso   1.000  C
  C10      1.0000 0.43549  0.20959  0.00500  Biso   1.000  C
  C11      1.0000 0.31779  0.66165  0.01536  Biso   1.000  C
  C12      1.0000 0.65811  0.98894  0.00387  Biso   1.000  C
  C13      1.0000 0.77061  0.87886  0.00450  Biso   1.000  C
  C14      1.0000 0.65847  0.32179  0.00426  Biso   1.000  C
  C15      1.0000 0.76899  0.21080  0.00172  Biso   1.000  C
  C16      1.0000 0.67102  0.66172  0.01531  Biso   1.000  C
  C17      1.0000 0.77087  0.54433  0.00477  Biso   1.000  C
  Mn1      1.0000 0.43661  0.54659  0.07269  Biso   1.000  Mn
  O1       1.0000 0.44310  0.56441  0.16658  Biso   1.000  O
  C18      1.0000 0.60077  0.92857  0.22413  Biso   1.000  C
  H1       1.0000 0.63376  0.90795  0.28017  Biso   1.000  H
  H2       1.0000 0.52129  0.74080  0.19596  Biso   1.000  H
  H3       1.0000 0.47483  0.96481  0.21810  Biso   1.000  H
  O2       1.0000 0.77402  0.07209  0.18480  Biso   1.000  O
  H4       1.0000 0.89853  0.06883  0.20073  Biso   1.000  H
