data_image0
_cell_length_a       7.50446
_cell_length_b       7.50244
_cell_length_c       18.5212
_cell_angle_alpha    90
_cell_angle_beta     90
_cell_angle_gamma    119.971

_symmetry_space_group_name_H-M    "P 1"
_symmetry_int_tables_number       1

loop_
  _symmetry_equiv_pos_as_xyz
  'x, y, z'

loop_
  _atom_site_label
  _atom_site_occupancy
  _atom_site_fract_x
  _atom_site_fract_y
  _atom_site_fract_z
  _atom_site_thermal_displace_type
  _atom_site_B_iso_or_equiv
  _atom_site_type_symbol
  N1       1.0000 0.10419  0.21320  0.99269  Biso   1.000  N
  N2       1.0000 0.10412  0.54640  0.99291  Biso   1.000  N
  N3       1.0000 0.10620  0.88080  0.00097  Biso   1.000  N
  B1       1.0000 0.32484  0.32168  0.00076  Biso   1.000  B
  N4       1.0000 0.43808  0.21321  0.00205  Biso   1.000  N
  B2       1.0000 0.32476  0.65877  0.00069  Biso   1.000  B
  N5       1.0000 0.42087  0.53827  0.00864  Biso   1.000  N
  B3       1.0000 0.32766  0.99172  0.00065  Biso   1.000  B
  N6       1.0000 0.43796  0.88049  0.00166  Biso   1.000  N
  B4       1.0000 0.65991  0.32304  0.00173  Biso   1.000  B
  N7       1.0000 0.77151  0.21350  0.99406  Biso   1.000  N
  Ni1      1.0000 0.65580  0.65688  0.06190  Biso   1.000  Ni
  N8       1.0000 0.77995  0.54021  0.01121  Biso   1.000  N
  B5       1.0000 0.65967  0.99235  0.00127  Biso   1.000  B
  N9       1.0000 0.77992  0.89524  0.01020  Biso   1.000  N
  B6       1.0000 0.99337  0.32439  0.99307  Biso   1.000  B
  B7       1.0000 0.99607  0.65913  0.00073  Biso   1.000  B
  B8       1.0000 0.99622  0.99237  0.00032  Biso   1.000  B
  O1       1.0000 0.60859  0.64127  0.14857  Biso   1.000  O
