data_image0
_cell_length_a       12.26
_cell_length_b       12.2622
_cell_length_c       18
_cell_angle_alpha    90
_cell_angle_beta     90
_cell_angle_gamma    119.994

_symmetry_space_group_name_H-M    "P 1"
_symmetry_int_tables_number       1

loop_
  _symmetry_equiv_pos_as_xyz
  'x, y, z'

loop_
  _atom_site_label
  _atom_site_occupancy
  _atom_site_fract_x
  _atom_site_fract_y
  _atom_site_fract_z
  _atom_site_thermal_displace_type
  _atom_site_B_iso_or_equiv
  _atom_site_type_symbol
  C1       1.0000 0.01319  0.01096  0.08250  Biso   1.000  C
  C2       1.0000 0.27827  0.13940  0.08317  Biso   1.000  C
  C3       1.0000 0.21094  0.00501  0.08278  Biso   1.000  C
  C4       1.0000 0.47640  0.13942  0.08249  Biso   1.000  C
  C5       1.0000 0.40931  0.00500  0.08273  Biso   1.000  C
  C6       1.0000 0.67986  0.14567  0.08165  Biso   1.000  C
  C7       1.0000 0.61300  0.01092  0.08245  Biso   1.000  C
  C8       1.0000 0.88415  0.15307  0.08216  Biso   1.000  C
  C9       1.0000 0.81615  0.01704  0.08250  Biso   1.000  C
  C10      1.0000 0.08105  0.14568  0.08279  Biso   1.000  C
  C11      1.0000 0.21370  0.20823  0.08321  Biso   1.000  C
  C12      1.0000 0.47821  0.34105  0.08285  Biso   1.000  C
  C13      1.0000 0.41115  0.20700  0.08295  Biso   1.000  C
  C14      1.0000 0.67537  0.34190  0.08048  Biso   1.000  C
  C15      1.0000 0.60982  0.20828  0.08150  Biso   1.000  C
  C16      1.0000 0.81504  0.21888  0.08125  Biso   1.000  C
  C17      1.0000 0.01907  0.21890  0.08242  Biso   1.000  C
  C18      1.0000 0.28180  0.34184  0.08339  Biso   1.000  C
  C19      1.0000 0.41428  0.40926  0.08346  Biso   1.000  C
  C20      1.0000 0.67703  0.54260  0.08128  Biso   1.000  C
  C21      1.0000 0.61033  0.40931  0.08150  Biso   1.000  C
  C22      1.0000 0.87414  0.54325  0.07922  Biso   1.000  C
  C23      1.0000 0.80679  0.40866  0.07931  Biso   1.000  C
  C24      1.0000 0.28446  0.54317  0.08300  Biso   1.000  C
  C25      1.0000 0.21713  0.40855  0.08284  Biso   1.000  C
  C26      1.0000 0.48092  0.54258  0.08337  Biso   1.000  C
  C27      1.0000 0.61308  0.61081  0.08257  Biso   1.000  C
  C28      1.0000 0.87747  0.74358  0.08109  Biso   1.000  C
  C29      1.0000 0.80936  0.60999  0.08010  Biso   1.000  C
  C30      1.0000 0.07206  0.73294  0.08117  Biso   1.000  C
  C31      1.0000 0.27612  0.73303  0.08275  Biso   1.000  C
  C32      1.0000 0.48139  0.74363  0.08323  Biso   1.000  C
  C33      1.0000 0.41591  0.60996  0.08338  Biso   1.000  C
  C34      1.0000 0.68009  0.74489  0.08260  Biso   1.000  C
  C35      1.0000 0.81287  0.81244  0.08208  Biso   1.000  C
  C36      1.0000 0.07801  0.94094  0.08233  Biso   1.000  C
  C37      1.0000 0.01010  0.80620  0.08144  Biso   1.000  C
  C38      1.0000 0.27506  0.93486  0.08272  Biso   1.000  C
  C39      1.0000 0.20702  0.79881  0.08234  Biso   1.000  C
  C40      1.0000 0.47817  0.94091  0.08271  Biso   1.000  C
  C41      1.0000 0.41134  0.80620  0.08297  Biso   1.000  C
  C42      1.0000 0.68187  0.94689  0.08269  Biso   1.000  C
  C43      1.0000 0.61480  0.81245  0.08301  Biso   1.000  C
  C44      1.0000 0.88026  0.94690  0.08241  Biso   1.000  C
  N1       1.0000 0.87457  0.34835  0.07990  Biso   1.000  N
  N2       1.0000 0.08917  0.34827  0.08202  Biso   1.000  N
  N3       1.0000 0.00216  0.60352  0.07974  Biso   1.000  N
  N4       1.0000 0.21678  0.60353  0.08274  Biso   1.000  N
  Ni1      1.0000 0.04593  0.47596  0.08444  Biso   1.000  Ni
  O1       1.0000 0.02859  0.46087  0.22372  Biso   1.000  O
  H1       1.0000 0.09330  0.52070  0.25746  Biso   1.000  H
  C45      1.0000 0.81688  0.40565  0.28259  Biso   1.000  C
  H2       1.0000 0.82437  0.40399  0.34314  Biso   1.000  H
  H3       1.0000 0.92797  0.43063  0.25473  Biso   1.000  H
  H4       1.0000 0.74788  0.31452  0.25959  Biso   1.000  H
  O2       1.0000 0.78977  0.49705  0.25620  Biso   1.000  O
  H5       1.0000 0.84862  0.57749  0.27888  Biso   1.000  H
