data_image0
_cell_length_a       7.50446
_cell_length_b       7.50244
_cell_length_c       18.5212
_cell_angle_alpha    90
_cell_angle_beta     90
_cell_angle_gamma    119.971

_symmetry_space_group_name_H-M    "P 1"
_symmetry_int_tables_number       1

loop_
  _symmetry_equiv_pos_as_xyz
  'x, y, z'

loop_
  _atom_site_label
  _atom_site_occupancy
  _atom_site_fract_x
  _atom_site_fract_y
  _atom_site_fract_z
  _atom_site_thermal_displace_type
  _atom_site_B_iso_or_equiv
  _atom_site_type_symbol
  N1       1.0000 0.10889  0.22834  0.98771  Biso   1.000  N
  N2       1.0000 0.10820  0.56144  0.98753  Biso   1.000  N
  N3       1.0000 0.10993  0.89591  0.00014  Biso   1.000  N
  B1       1.0000 0.32833  0.33654  0.00014  Biso   1.000  B
  N4       1.0000 0.44203  0.22837  0.00184  Biso   1.000  N
  B2       1.0000 0.32812  0.67422  0.99852  Biso   1.000  B
  N5       1.0000 0.41873  0.55111  0.01216  Biso   1.000  N
  B3       1.0000 0.33127  0.00679  0.99938  Biso   1.000  B
  N6       1.0000 0.44167  0.89587  0.99969  Biso   1.000  N
  B4       1.0000 0.66399  0.33676  0.00109  Biso   1.000  B
  N7       1.0000 0.77511  0.22854  0.98818  Biso   1.000  N
  Pd1      1.0000 0.66384  0.67716  0.07379  Biso   1.000  Pd
  N8       1.0000 0.78845  0.55085  0.01476  Biso   1.000  N
  B5       1.0000 0.66400  0.00690  0.99562  Biso   1.000  B
  N9       1.0000 0.78224  0.90843  0.00306  Biso   1.000  N
  B6       1.0000 0.99730  0.33915  0.98714  Biso   1.000  B
  B7       1.0000 0.00138  0.67422  0.99955  Biso   1.000  B
  B8       1.0000 0.99857  0.00683  0.99569  Biso   1.000  B
  O1       1.0000 0.59727  0.56410  0.16855  Biso   1.000  O
  C1       1.0000 0.41710  0.18930  0.20353  Biso   1.000  C
  H1       1.0000 0.27781  0.11943  0.17096  Biso   1.000  H
  H2       1.0000 0.53111  0.14752  0.18799  Biso   1.000  H
  H3       1.0000 0.39183  0.18853  0.26127  Biso   1.000  H
  H4       1.0000 0.51000  0.39122  0.18592  Biso   1.000  H
