data_image0
_cell_length_a       7.50446
_cell_length_b       7.50244
_cell_length_c       18.5212
_cell_angle_alpha    90
_cell_angle_beta     90
_cell_angle_gamma    119.971

_symmetry_space_group_name_H-M    "P 1"
_symmetry_int_tables_number       1

loop_
  _symmetry_equiv_pos_as_xyz
  'x, y, z'

loop_
  _atom_site_label
  _atom_site_occupancy
  _atom_site_fract_x
  _atom_site_fract_y
  _atom_site_fract_z
  _atom_site_thermal_displace_type
  _atom_site_B_iso_or_equiv
  _atom_site_type_symbol
  N1       1.0000 0.10526  0.17239  0.99216  Biso   1.000  N
  N2       1.0000 0.10520  0.50582  0.99323  Biso   1.000  N
  N3       1.0000 0.10566  0.83891  0.00602  Biso   1.000  N
  B1       1.0000 0.32543  0.27938  0.00295  Biso   1.000  B
  N4       1.0000 0.43788  0.17047  0.00439  Biso   1.000  N
  B2       1.0000 0.32516  0.61718  0.00472  Biso   1.000  B
  N5       1.0000 0.41695  0.49344  0.01622  Biso   1.000  N
  B3       1.0000 0.32717  0.94929  0.00431  Biso   1.000  B
  N6       1.0000 0.43838  0.83901  0.00624  Biso   1.000  N
  B4       1.0000 0.66046  0.28191  0.00094  Biso   1.000  B
  N7       1.0000 0.77163  0.17224  0.99088  Biso   1.000  N
  Pd1      1.0000 0.65955  0.61671  0.07919  Biso   1.000  Pd
  N8       1.0000 0.77804  0.49721  0.01110  Biso   1.000  N
  B5       1.0000 0.66052  0.95349  0.00450  Biso   1.000  B
  N9       1.0000 0.78450  0.86392  0.01829  Biso   1.000  N
  B6       1.0000 0.99376  0.28352  0.99135  Biso   1.000  B
  B7       1.0000 0.99412  0.61624  0.00245  Biso   1.000  B
  B8       1.0000 0.99772  0.95272  0.00442  Biso   1.000  B
  O1       1.0000 0.61671  0.69869  0.17198  Biso   1.000  O
  C1       1.0000 0.58635  0.00808  0.21041  Biso   1.000  C
  H1       1.0000 0.61259  0.00790  0.26854  Biso   1.000  H
  H2       1.0000 0.59846  0.84999  0.18828  Biso   1.000  H
  H3       1.0000 0.43116  0.97406  0.19670  Biso   1.000  H
  O2       1.0000 0.72818  0.18625  0.17479  Biso   1.000  O
  H4       1.0000 0.86543  0.22917  0.19324  Biso   1.000  H
