data_image0
_cell_length_a       7.50446
_cell_length_b       7.50244
_cell_length_c       18.5212
_cell_angle_alpha    90
_cell_angle_beta     90
_cell_angle_gamma    119.971

_symmetry_space_group_name_H-M    "P 1"
_symmetry_int_tables_number       1

loop_
  _symmetry_equiv_pos_as_xyz
  'x, y, z'

loop_
  _atom_site_label
  _atom_site_occupancy
  _atom_site_fract_x
  _atom_site_fract_y
  _atom_site_fract_z
  _atom_site_thermal_displace_type
  _atom_site_B_iso_or_equiv
  _atom_site_type_symbol
  N1       1.0000 0.10478  0.21286  0.98843  Biso   1.000  N
  N2       1.0000 0.10466  0.54636  0.98864  Biso   1.000  N
  N3       1.0000 0.10627  0.88036  0.99966  Biso   1.000  N
  B1       1.0000 0.32434  0.32059  0.99957  Biso   1.000  B
  N4       1.0000 0.43829  0.21274  0.00049  Biso   1.000  N
  B2       1.0000 0.32421  0.65819  0.99958  Biso   1.000  B
  N5       1.0000 0.41603  0.53524  0.01172  Biso   1.000  N
  B3       1.0000 0.32772  0.99119  0.99886  Biso   1.000  B
  N6       1.0000 0.43820  0.88006  0.00031  Biso   1.000  N
  B4       1.0000 0.66046  0.32256  0.99898  Biso   1.000  B
  N7       1.0000 0.77154  0.21308  0.98883  Biso   1.000  N
  Pd1      1.0000 0.65771  0.65777  0.07503  Biso   1.000  Pd
  N8       1.0000 0.78122  0.53849  0.01016  Biso   1.000  N
  B5       1.0000 0.66016  0.99273  0.99895  Biso   1.000  B
  N9       1.0000 0.78185  0.89840  0.01015  Biso   1.000  N
  B6       1.0000 0.99371  0.32412  0.98824  Biso   1.000  B
  B7       1.0000 0.99633  0.65832  0.99846  Biso   1.000  B
  B8       1.0000 0.99691  0.99274  0.99837  Biso   1.000  B
  O1       1.0000 0.60529  0.64714  0.16962  Biso   1.000  O
