data_image0
_cell_length_a       7.50446
_cell_length_b       7.50244
_cell_length_c       18.5212
_cell_angle_alpha    90
_cell_angle_beta     90
_cell_angle_gamma    119.971

_symmetry_space_group_name_H-M    "P 1"
_symmetry_int_tables_number       1

loop_
  _symmetry_equiv_pos_as_xyz
  'x, y, z'

loop_
  _atom_site_label
  _atom_site_occupancy
  _atom_site_fract_x
  _atom_site_fract_y
  _atom_site_fract_z
  _atom_site_thermal_displace_type
  _atom_site_B_iso_or_equiv
  _atom_site_type_symbol
  N1       1.0000 0.11884  0.24045  0.98575  Biso   1.000  N
  N2       1.0000 0.11903  0.57428  0.98428  Biso   1.000  N
  N3       1.0000 0.12013  0.90849  0.99834  Biso   1.000  N
  B1       1.0000 0.33824  0.34933  0.99770  Biso   1.000  B
  N4       1.0000 0.45264  0.24150  0.99899  Biso   1.000  N
  B2       1.0000 0.33852  0.68719  0.99600  Biso   1.000  B
  N5       1.0000 0.43056  0.56522  0.01058  Biso   1.000  N
  B3       1.0000 0.34150  0.01967  0.99681  Biso   1.000  B
  N6       1.0000 0.45191  0.90878  0.99748  Biso   1.000  N
  B4       1.0000 0.67486  0.34879  0.99800  Biso   1.000  B
  N7       1.0000 0.78552  0.24043  0.98529  Biso   1.000  N
  Pt1      1.0000 0.67173  0.68067  0.07433  Biso   1.000  Pt
  N8       1.0000 0.79892  0.56354  0.01225  Biso   1.000  N
  B5       1.0000 0.67471  0.01910  0.99453  Biso   1.000  B
  N9       1.0000 0.79125  0.91963  0.00513  Biso   1.000  N
  B6       1.0000 0.00779  0.35162  0.98451  Biso   1.000  B
  B7       1.0000 0.01238  0.68677  0.99698  Biso   1.000  B
  B8       1.0000 0.00777  0.01904  0.99519  Biso   1.000  B
  O1       1.0000 0.62107  0.56119  0.16796  Biso   1.000  O
  C1       1.0000 0.46430  0.17410  0.19709  Biso   1.000  C
  H1       1.0000 0.32065  0.11305  0.16751  Biso   1.000  H
  H2       1.0000 0.57862  0.14198  0.17438  Biso   1.000  H
  H3       1.0000 0.45186  0.16827  0.25550  Biso   1.000  H
  H4       1.0000 0.55741  0.39841  0.18197  Biso   1.000  H
