data_image0
_cell_length_a       7.36011
_cell_length_b       7.36001
_cell_length_c       18.5212
_cell_angle_alpha    90
_cell_angle_beta     90
_cell_angle_gamma    120.001

_symmetry_space_group_name_H-M    "P 1"
_symmetry_int_tables_number       1

loop_
  _symmetry_equiv_pos_as_xyz
  'x, y, z'

loop_
  _atom_site_label
  _atom_site_occupancy
  _atom_site_fract_x
  _atom_site_fract_y
  _atom_site_fract_z
  _atom_site_thermal_displace_type
  _atom_site_B_iso_or_equiv
  _atom_site_type_symbol
  C1       1.0000 0.99597  0.99111  0.00395  Biso   1.000  C
  C2       1.0000 0.10682  0.88024  0.00331  Biso   1.000  C
  C3       1.0000 0.99495  0.32430  0.00913  Biso   1.000  C
  C4       1.0000 0.10496  0.21143  0.01023  Biso   1.000  C
  C5       1.0000 0.99566  0.65857  0.00402  Biso   1.000  C
  C6       1.0000 0.10500  0.54695  0.00929  Biso   1.000  C
  C7       1.0000 0.32852  0.99140  0.00399  Biso   1.000  C
  C8       1.0000 0.44013  0.88208  0.00927  Biso   1.000  C
  C9       1.0000 0.32027  0.30894  0.02433  Biso   1.000  C
  C10      1.0000 0.43944  0.21193  0.01100  Biso   1.000  C
  C11      1.0000 0.32111  0.66600  0.02160  Biso   1.000  C
  C12      1.0000 0.66278  0.99213  0.00912  Biso   1.000  C
  C13      1.0000 0.77564  0.88213  0.01024  Biso   1.000  C
  C14      1.0000 0.66222  0.32485  0.00999  Biso   1.000  C
  C15      1.0000 0.77325  0.21386  0.00631  Biso   1.000  C
  C16      1.0000 0.67816  0.66685  0.02437  Biso   1.000  C
  C17      1.0000 0.77513  0.54764  0.01104  Biso   1.000  C
  Rh1      1.0000 0.43735  0.54968  0.08506  Biso   1.000  Rh
  O1       1.0000 0.40514  0.58306  0.18465  Biso   1.000  O
  H1       1.0000 0.46418  0.52867  0.23654  Biso   1.000  H
  C18      1.0000 0.52105  0.47725  0.29708  Biso   1.000  C
  H2       1.0000 0.61782  0.62780  0.32325  Biso   1.000  H
  H3       1.0000 0.60529  0.39773  0.28080  Biso   1.000  H
  H4       1.0000 0.37245  0.37710  0.32393  Biso   1.000  H
