data_image0
_cell_length_a       6.44749
_cell_length_b       5.2291
_cell_length_c       26.4589
_cell_angle_alpha    90
_cell_angle_beta     90
_cell_angle_gamma    90

_symmetry_space_group_name_H-M    "P 1"
_symmetry_int_tables_number       1

loop_
  _symmetry_equiv_pos_as_xyz
  'x, y, z'

loop_
  _atom_site_label
  _atom_site_occupancy
  _atom_site_fract_x
  _atom_site_fract_y
  _atom_site_fract_z
  _atom_site_thermal_displace_type
  _atom_site_B_iso_or_equiv
  _atom_site_type_symbol
  O1       1.0000 0.25000  0.37857  0.10771  Biso   1.000  O
  O2       1.0000 0.75001  0.37857  0.10771  Biso   1.000  O
  Zn1      1.0000 0.25000  0.99674  0.10796  Biso   1.000  Zn
  Zn2      1.0000 0.75001  0.99674  0.10796  Biso   1.000  Zn
  Zn3      1.0000 0.50001  0.49673  0.14503  Biso   1.000  Zn
  Zn4      1.0000 1.00000  0.49673  0.14503  Biso   1.000  Zn
  O3       1.0000 0.50001  0.87857  0.14527  Biso   1.000  O
  O4       1.0000 1.00000  0.87857  0.14527  Biso   1.000  O
  O5       1.0000 0.50001  0.37857  0.21647  Biso   1.000  O
  O6       1.0000 1.00000  0.37857  0.21647  Biso   1.000  O
  Zn5      1.0000 0.50001  0.99673  0.21672  Biso   1.000  Zn
  Zn6      1.0000 1.00000  0.99673  0.21672  Biso   1.000  Zn
  Zn7      1.0000 0.25000  0.49674  0.25378  Biso   1.000  Zn
  Zn8      1.0000 0.75001  0.49674  0.25378  Biso   1.000  Zn
  O7       1.0000 0.25000  0.87857  0.25402  Biso   1.000  O
  O8       1.0000 0.75001  0.87857  0.25402  Biso   1.000  O
  O9       1.0000 0.25145  0.37806  0.32568  Biso   1.000  O
  O10      1.0000 0.75162  0.37991  0.32646  Biso   1.000  O
  Zn9      1.0000 0.25163  0.99500  0.32651  Biso   1.000  Zn
  Zn10     1.0000 0.75193  0.99576  0.32676  Biso   1.000  Zn
  Zn11     1.0000 0.49857  0.49559  0.36403  Biso   1.000  Zn
  Zn12     1.0000 0.00465  0.49577  0.36418  Biso   1.000  Zn
  O11      1.0000 0.50080  0.87922  0.36476  Biso   1.000  O
  O12      1.0000 0.00287  0.87945  0.36480  Biso   1.000  O
  O13      1.0000 0.49652  0.37773  0.43654  Biso   1.000  O
  O14      1.0000 0.00835  0.37871  0.43658  Biso   1.000  O
  Zn13     1.0000 0.51150  0.99633  0.43765  Biso   1.000  Zn
  Zn14     1.0000 0.99706  0.99723  0.43769  Biso   1.000  Zn
  Zn15     1.0000 0.25451  0.48667  0.48151  Biso   1.000  Zn
  Zn16     1.0000 0.75231  0.52135  0.46323  Biso   1.000  Zn
  O15      1.0000 0.25412  0.86794  0.47504  Biso   1.000  O
  O16      1.0000 0.75426  0.87767  0.47401  Biso   1.000  O
  O17      1.0000 0.26161  0.24740  0.53653  Biso   1.000  O
  H1       1.0000 0.25592  0.98997  0.50587  Biso   1.000  H
  H2       1.0000 0.10974  0.45653  0.59287  Biso   1.000  H
  H3       1.0000 0.15780  0.13069  0.60661  Biso   1.000  H
  C1       1.0000 0.11484  0.26393  0.57632  Biso   1.000  C
  H4       1.0000 0.95654  0.21465  0.56398  Biso   1.000  H
