data_image0
_cell_length_a       6.44749
_cell_length_b       5.2291
_cell_length_c       26.4589
_cell_angle_alpha    90
_cell_angle_beta     90
_cell_angle_gamma    90

_symmetry_space_group_name_H-M    "P 1"
_symmetry_int_tables_number       1

loop_
  _symmetry_equiv_pos_as_xyz
  'x, y, z'

loop_
  _atom_site_label
  _atom_site_occupancy
  _atom_site_fract_x
  _atom_site_fract_y
  _atom_site_fract_z
  _atom_site_thermal_displace_type
  _atom_site_B_iso_or_equiv
  _atom_site_type_symbol
  O1       1.0000 0.25000  0.37857  0.10771  Biso   1.000  O
  O2       1.0000 0.75001  0.37857  0.10771  Biso   1.000  O
  Zn1      1.0000 0.25000  0.99674  0.10796  Biso   1.000  Zn
  Zn2      1.0000 0.75001  0.99674  0.10796  Biso   1.000  Zn
  Zn3      1.0000 0.50001  0.49673  0.14503  Biso   1.000  Zn
  Zn4      1.0000 1.00000  0.49673  0.14503  Biso   1.000  Zn
  O3       1.0000 0.50001  0.87857  0.14527  Biso   1.000  O
  O4       1.0000 1.00000  0.87857  0.14527  Biso   1.000  O
  O5       1.0000 0.50001  0.37857  0.21647  Biso   1.000  O
  O6       1.0000 1.00000  0.37857  0.21647  Biso   1.000  O
  Zn5      1.0000 0.50001  0.99673  0.21672  Biso   1.000  Zn
  Zn6      1.0000 1.00000  0.99673  0.21672  Biso   1.000  Zn
  Zn7      1.0000 0.25000  0.49674  0.25378  Biso   1.000  Zn
  Zn8      1.0000 0.75001  0.49674  0.25378  Biso   1.000  Zn
  O7       1.0000 0.25000  0.87857  0.25402  Biso   1.000  O
  O8       1.0000 0.75001  0.87857  0.25402  Biso   1.000  O
  O9       1.0000 0.25031  0.37901  0.32561  Biso   1.000  O
  O10      1.0000 0.75067  0.38178  0.32620  Biso   1.000  O
  Zn9      1.0000 0.25156  0.99521  0.32714  Biso   1.000  Zn
  Zn10     1.0000 0.75004  0.99786  0.32702  Biso   1.000  Zn
  Zn11     1.0000 0.49776  0.49907  0.36390  Biso   1.000  Zn
  Zn12     1.0000 0.00332  0.49826  0.36398  Biso   1.000  Zn
  O11      1.0000 0.50129  0.88101  0.36451  Biso   1.000  O
  O12      1.0000 0.00025  0.88043  0.36397  Biso   1.000  O
  O13      1.0000 0.49544  0.37433  0.43581  Biso   1.000  O
  O14      1.0000 0.00262  0.37479  0.43647  Biso   1.000  O
  Zn13     1.0000 0.49875  0.99432  0.44016  Biso   1.000  Zn
  Zn14     1.0000 0.00052  0.99339  0.43855  Biso   1.000  Zn
  Zn15     1.0000 0.24884  0.49662  0.47862  Biso   1.000  Zn
  Zn16     1.0000 0.74723  0.52317  0.46257  Biso   1.000  Zn
  O15      1.0000 0.24806  0.85802  0.46954  Biso   1.000  O
  O16      1.0000 0.75133  0.87795  0.47342  Biso   1.000  O
  O17      1.0000 0.28237  0.30447  0.53952  Biso   1.000  O
  H1       1.0000 0.09216  0.45079  0.59493  Biso   1.000  H
  H2       1.0000 0.16679  0.12444  0.60239  Biso   1.000  H
  C1       1.0000 0.12376  0.27029  0.57447  Biso   1.000  C
  H3       1.0000 0.97548  0.21324  0.55694  Biso   1.000  H
