data_image0
_cell_length_a       8.92079
_cell_length_b       8.92079
_cell_length_c       18.2838
_cell_angle_alpha    90
_cell_angle_beta     90
_cell_angle_gamma    60

_symmetry_space_group_name_H-M    "P 1"
_symmetry_int_tables_number       1

loop_
  _symmetry_equiv_pos_as_xyz
  'x, y, z'

loop_
  _atom_site_label
  _atom_site_occupancy
  _atom_site_fract_x
  _atom_site_fract_y
  _atom_site_fract_z
  _atom_site_thermal_displace_type
  _atom_site_B_iso_or_equiv
  _atom_site_type_symbol
  Ag1      1.0000 0.98928  0.00286  0.99920  Biso   1.000  Ag
  Ag2      1.0000 0.32734  0.99714  0.00762  Biso   1.000  Ag
  Ag3      1.0000 0.65940  0.00414  0.00031  Biso   1.000  Ag
  Ag4      1.0000 0.97620  0.34550  0.99757  Biso   1.000  Ag
  Ag5      1.0000 0.32789  0.34427  0.00701  Biso   1.000  Ag
  Ag6      1.0000 0.65592  0.33820  0.99968  Biso   1.000  Ag
  C1       1.0000 0.02123  0.33049  0.20105  Biso   1.000  C
  H1       1.0000 0.12179  0.28227  0.14066  Biso   1.000  H
  H2       1.0000 0.06665  0.21048  0.23162  Biso   1.000  H
  H3       1.0000 0.89236  0.38086  0.17812  Biso   1.000  H
  O1       1.0000 0.02704  0.46173  0.23951  Biso   1.000  O
  O2       1.0000 0.19114  0.24117  0.08137  Biso   1.000  O
  Ag7      1.0000 0.98917  0.67531  0.99948  Biso   1.000  Ag
  Ag8      1.0000 0.32430  0.67220  0.00038  Biso   1.000  Ag
  Ag9      1.0000 0.65551  0.67391  0.99985  Biso   1.000  Ag
  Ag10     1.0000 0.10733  0.11328  0.86784  Biso   1.000  Ag
  Ag11     1.0000 0.43746  0.11475  0.86970  Biso   1.000  Ag
  Ag12     1.0000 0.77255  0.11415  0.86644  Biso   1.000  Ag
  Ag13     1.0000 0.10729  0.44630  0.86779  Biso   1.000  Ag
  Ag14     1.0000 0.43713  0.44572  0.86821  Biso   1.000  Ag
  Ag15     1.0000 0.77306  0.44699  0.86656  Biso   1.000  Ag
  Ag16     1.0000 0.10714  0.77975  0.86644  Biso   1.000  Ag
  Ag17     1.0000 0.43709  0.78438  0.86826  Biso   1.000  Ag
  Ag18     1.0000 0.77266  0.78005  0.86658  Biso   1.000  Ag
  Ag19     1.0000 0.22222  0.22222  0.73442  Biso   1.000  Ag
  Ag20     1.0000 0.55556  0.22222  0.73442  Biso   1.000  Ag
  Ag21     1.0000 0.88889  0.22222  0.73442  Biso   1.000  Ag
  Ag22     1.0000 0.22222  0.55556  0.73442  Biso   1.000  Ag
  Ag23     1.0000 0.55556  0.55556  0.73442  Biso   1.000  Ag
  Ag24     1.0000 0.88889  0.55556  0.73442  Biso   1.000  Ag
  Ag25     1.0000 0.22222  0.88889  0.73442  Biso   1.000  Ag
  Ag26     1.0000 0.55556  0.88889  0.73442  Biso   1.000  Ag
  Ag27     1.0000 0.88889  0.88889  0.73442  Biso   1.000  Ag
  Ag28     1.0000 0.00000  0.00000  0.60163  Biso   1.000  Ag
  Ag29     1.0000 0.33333  0.00000  0.60163  Biso   1.000  Ag
  Ag30     1.0000 0.66667  0.00000  0.60163  Biso   1.000  Ag
  Ag31     1.0000 0.00000  0.33333  0.60163  Biso   1.000  Ag
  Ag32     1.0000 0.33333  0.33333  0.60163  Biso   1.000  Ag
  Ag33     1.0000 0.66667  0.33333  0.60163  Biso   1.000  Ag
  Ag34     1.0000 0.00000  0.66667  0.60163  Biso   1.000  Ag
  Ag35     1.0000 0.33333  0.66667  0.60163  Biso   1.000  Ag
  Ag36     1.0000 0.66667  0.66667  0.60163  Biso   1.000  Ag
  H4       1.0000 0.12593  0.41271  0.27174  Biso   1.000  H
