data_image0
_cell_length_a       7.86883
_cell_length_b       7.86883
_cell_length_c       17.4249
_cell_angle_alpha    90
_cell_angle_beta     90
_cell_angle_gamma    60

loop_
  _atom_site_label
  _atom_site_occupancy
  _atom_site_fract_x
  _atom_site_fract_y
  _atom_site_fract_z
  _atom_site_thermal_displace_type
  _atom_site_B_iso_or_equiv
  _atom_site_type_symbol
  Cu1      1.0000 -0.00802  0.00233  0.00035  Biso   1.000  Cu
  Cu2      1.0000 0.34260  0.00154  -0.00019  Biso   1.000  Cu
  Cu3      1.0000 0.66494  0.00600  -0.00785  Biso   1.000  Cu
  Cu4      1.0000 -0.00959  0.35441  -0.00084  Biso   1.000  Cu
  Cu5      1.0000 0.33317  0.34346  -0.00822  Biso   1.000  Cu
  Cu6      1.0000 0.65866  0.34333  -0.00823  Biso   1.000  Cu
  O1       1.0000 0.10882  0.12155  0.06104  Biso   1.000  O
  Cu7      1.0000 -0.00423  0.67565  -0.00821  Biso   1.000  Cu
  Cu8      1.0000 0.33312  0.66881  -0.00806  Biso   1.000  Cu
  Cu9      1.0000 0.66388  0.67512  -0.00829  Biso   1.000  Cu
  Cu10     1.0000 0.10926  0.11551  -0.12521  Biso   1.000  Cu
  Cu11     1.0000 0.44169  0.11384  -0.12531  Biso   1.000  Cu
  Cu12     1.0000 0.77886  0.11382  -0.12522  Biso   1.000  Cu
  Cu13     1.0000 0.10809  0.44783  -0.12562  Biso   1.000  Cu
  Cu14     1.0000 0.44257  0.44881  -0.12734  Biso   1.000  Cu
  Cu15     1.0000 0.77827  0.44772  -0.12565  Biso   1.000  Cu
  Cu16     1.0000 0.10793  0.78510  -0.12541  Biso   1.000  Cu
  Cu17     1.0000 0.44119  0.78499  -0.12552  Biso   1.000  Cu
  Cu18     1.0000 0.77605  0.78193  -0.12714  Biso   1.000  Cu
  Cu19     1.0000 0.22222  0.22222  -0.24581  Biso   1.000  Cu
  Cu20     1.0000 0.55556  0.22222  -0.24581  Biso   1.000  Cu
  Cu21     1.0000 0.88889  0.22222  -0.24581  Biso   1.000  Cu
  Cu22     1.0000 0.22222  0.55556  -0.24581  Biso   1.000  Cu
  Cu23     1.0000 0.55556  0.55556  -0.24581  Biso   1.000  Cu
  Cu24     1.0000 0.88889  0.55556  -0.24581  Biso   1.000  Cu
  Cu25     1.0000 0.22222  0.88889  -0.24581  Biso   1.000  Cu
  Cu26     1.0000 0.55556  0.88889  -0.24581  Biso   1.000  Cu
  Cu27     1.0000 0.88889  0.88889  -0.24581  Biso   1.000  Cu
  Cu28     1.0000 0.00000  0.00000  -0.36872  Biso   1.000  Cu
  Cu29     1.0000 0.33333  0.00000  -0.36872  Biso   1.000  Cu
  Cu30     1.0000 0.66667  0.00000  -0.36872  Biso   1.000  Cu
  Cu31     1.0000 0.00000  0.33333  -0.36872  Biso   1.000  Cu
  Cu32     1.0000 0.33333  0.33333  -0.36872  Biso   1.000  Cu
  Cu33     1.0000 0.66667  0.33333  -0.36872  Biso   1.000  Cu
  Cu34     1.0000 0.00000  0.66667  -0.36872  Biso   1.000  Cu
  Cu35     1.0000 0.33333  0.66667  -0.36872  Biso   1.000  Cu
  Cu36     1.0000 0.66667  0.66667  -0.36872  Biso   1.000  Cu
