data_image0
_cell_length_a       8.5311
_cell_length_b       8.5311
_cell_length_c       24.212
_cell_angle_alpha    90
_cell_angle_beta     90
_cell_angle_gamma    60

_symmetry_space_group_name_H-M    "P 1"
_symmetry_int_tables_number       1

loop_
  _symmetry_equiv_pos_as_xyz
  'x, y, z'

loop_
  _atom_site_label
  _atom_site_occupancy
  _atom_site_fract_x
  _atom_site_fract_y
  _atom_site_fract_z
  _atom_site_thermal_displace_type
  _atom_site_B_iso_or_equiv
  _atom_site_type_symbol
  Pt1      1.0000 0.00000  0.00000  0.33041  Biso   1.000  Pt
  Pt2      1.0000 0.33333  0.00000  0.33041  Biso   1.000  Pt
  Pt3      1.0000 0.66667  0.00000  0.33041  Biso   1.000  Pt
  Pt4      1.0000 0.00000  0.33333  0.33041  Biso   1.000  Pt
  Pt5      1.0000 0.33333  0.33333  0.33041  Biso   1.000  Pt
  Pt6      1.0000 0.66667  0.33333  0.33041  Biso   1.000  Pt
  Pt7      1.0000 0.00000  0.66667  0.33041  Biso   1.000  Pt
  Pt8      1.0000 0.33333  0.66667  0.33041  Biso   1.000  Pt
  Pt9      1.0000 0.66667  0.66667  0.33041  Biso   1.000  Pt
  Pt10     1.0000 0.11111  0.11111  0.42631  Biso   1.000  Pt
  Pt11     1.0000 0.44444  0.11111  0.42631  Biso   1.000  Pt
  Pt12     1.0000 0.77778  0.11111  0.42631  Biso   1.000  Pt
  Pt13     1.0000 0.11111  0.44444  0.42631  Biso   1.000  Pt
  Pt14     1.0000 0.44444  0.44444  0.42631  Biso   1.000  Pt
  Pt15     1.0000 0.77778  0.44444  0.42631  Biso   1.000  Pt
  Pt16     1.0000 0.11111  0.77778  0.42631  Biso   1.000  Pt
  Pt17     1.0000 0.44444  0.77778  0.42631  Biso   1.000  Pt
  Pt18     1.0000 0.77778  0.77778  0.42631  Biso   1.000  Pt
  Pt19     1.0000 0.88993  0.22164  0.52145  Biso   1.000  Pt
  Pt20     1.0000 0.22162  0.22165  0.52138  Biso   1.000  Pt
  Pt21     1.0000 0.55584  0.22175  0.52057  Biso   1.000  Pt
  Pt22     1.0000 0.88991  0.55344  0.52224  Biso   1.000  Pt
  Pt23     1.0000 0.22174  0.55586  0.52057  Biso   1.000  Pt
  Pt24     1.0000 0.55576  0.55579  0.52061  Biso   1.000  Pt
  Pt25     1.0000 0.88996  0.88999  0.52227  Biso   1.000  Pt
  Pt26     1.0000 0.22161  0.88996  0.52146  Biso   1.000  Pt
  Pt27     1.0000 0.55338  0.88996  0.52224  Biso   1.000  Pt
  Pt28     1.0000 0.99260  0.99272  0.62034  Biso   1.000  Pt
  Pt29     1.0000 0.34854  0.99241  0.62019  Biso   1.000  Pt
  Pt30     1.0000 0.66690  0.99987  0.61771  Biso   1.000  Pt
  Pt31     1.0000 0.99223  0.34877  0.62016  Biso   1.000  Pt
  Pt32     1.0000 0.33472  0.33480  0.61629  Biso   1.000  Pt
  Pt33     1.0000 0.66374  0.33481  0.61646  Biso   1.000  Pt
  Pt34     1.0000 0.99978  0.66704  0.61771  Biso   1.000  Pt
  Pt35     1.0000 0.33473  0.66385  0.61647  Biso   1.000  Pt
  Pt36     1.0000 0.66670  0.66689  0.61773  Biso   1.000  Pt
  O1       1.0000 0.11128  0.11163  0.66546  Biso   1.000  O
