data_image0
_cell_length_a       8.1622
_cell_length_b       8.1622
_cell_length_c       17.6644
_cell_angle_alpha    90
_cell_angle_beta     90
_cell_angle_gamma    60

loop_
  _atom_site_label
  _atom_site_occupancy
  _atom_site_fract_x
  _atom_site_fract_y
  _atom_site_fract_z
  _atom_site_thermal_displace_type
  _atom_site_B_iso_or_equiv
  _atom_site_type_symbol
  Rh1      1.0000 -0.00601  -0.00542  -0.00266  Biso   1.000  Rh
  Rh2      1.0000 0.32806  -0.00207  0.00464  Biso   1.000  Rh
  Rh3      1.0000 0.66547  -0.00188  -0.00120  Biso   1.000  Rh
  Rh4      1.0000 -0.00344  0.32980  0.00418  Biso   1.000  Rh
  Rh5      1.0000 0.33397  0.33452  -0.00114  Biso   1.000  Rh
  Rh6      1.0000 0.66374  0.33218  -0.00136  Biso   1.000  Rh
  C1       1.0000 0.05746  0.05187  0.20927  Biso   1.000  C
  H1       1.0000 0.11472  0.12460  0.14274  Biso   1.000  H
  H2       1.0000 0.19500  -0.03844  0.23512  Biso   1.000  H
  H3       1.0000 -0.00570  -0.02058  0.18055  Biso   1.000  H
  O1       1.0000 -0.07388  0.19480  0.25387  Biso   1.000  O
  O2       1.0000 0.16951  0.17547  0.09446  Biso   1.000  O
  Rh7      1.0000 -0.00242  0.66625  -0.00122  Biso   1.000  Rh
  Rh8      1.0000 0.33164  0.66428  -0.00136  Biso   1.000  Rh
  Rh9      1.0000 0.66502  0.66593  -0.00070  Biso   1.000  Rh
  Rh10     1.0000 0.11040  0.11083  -0.12684  Biso   1.000  Rh
  Rh11     1.0000 0.44264  0.10977  -0.12599  Biso   1.000  Rh
  Rh12     1.0000 0.77641  0.11080  -0.12696  Biso   1.000  Rh
  Rh13     1.0000 0.10949  0.44295  -0.12605  Biso   1.000  Rh
  Rh14     1.0000 0.44333  0.44363  -0.12655  Biso   1.000  Rh
  Rh15     1.0000 0.77854  0.44359  -0.12475  Biso   1.000  Rh
  Rh16     1.0000 0.11052  0.77672  -0.12698  Biso   1.000  Rh
  Rh17     1.0000 0.44311  0.77918  -0.12462  Biso   1.000  Rh
  Rh18     1.0000 0.77678  0.77705  -0.12666  Biso   1.000  Rh
  Rh19     1.0000 0.22222  0.22222  -0.25152  Biso   1.000  Rh
  Rh20     1.0000 0.55556  0.22222  -0.25152  Biso   1.000  Rh
  Rh21     1.0000 0.88889  0.22222  -0.25152  Biso   1.000  Rh
  Rh22     1.0000 0.22222  0.55556  -0.25152  Biso   1.000  Rh
  Rh23     1.0000 0.55556  0.55556  -0.25152  Biso   1.000  Rh
  Rh24     1.0000 0.88889  0.55556  -0.25152  Biso   1.000  Rh
  Rh25     1.0000 0.22222  0.88889  -0.25152  Biso   1.000  Rh
  Rh26     1.0000 0.55556  0.88889  -0.25152  Biso   1.000  Rh
  Rh27     1.0000 0.88889  0.88889  -0.25152  Biso   1.000  Rh
  Rh28     1.0000 0.00000  0.00000  -0.37728  Biso   1.000  Rh
  Rh29     1.0000 0.33333  0.00000  -0.37728  Biso   1.000  Rh
  Rh30     1.0000 0.66667  0.00000  -0.37728  Biso   1.000  Rh
  Rh31     1.0000 -0.00000  0.33333  -0.37728  Biso   1.000  Rh
  Rh32     1.0000 0.33333  0.33333  -0.37728  Biso   1.000  Rh
  Rh33     1.0000 0.66667  0.33333  -0.37728  Biso   1.000  Rh
  Rh34     1.0000 -0.00000  0.66667  -0.37728  Biso   1.000  Rh
  Rh35     1.0000 0.33333  0.66667  -0.37728  Biso   1.000  Rh
  Rh36     1.0000 0.66667  0.66667  -0.37728  Biso   1.000  Rh
  H4       1.0000 -0.01182  0.23087  0.29153  Biso   1.000  H
