data_image0
_cell_length_a       8.15711
_cell_length_b       8.15711
_cell_length_c       23.8696
_cell_angle_alpha    90
_cell_angle_beta     90
_cell_angle_gamma    60

_symmetry_space_group_name_H-M    "P 1"
_symmetry_int_tables_number       1

loop_
  _symmetry_equiv_pos_as_xyz
  'x, y, z'

loop_
  _atom_site_label
  _atom_site_occupancy
  _atom_site_fract_x
  _atom_site_fract_y
  _atom_site_fract_z
  _atom_site_thermal_displace_type
  _atom_site_B_iso_or_equiv
  _atom_site_type_symbol
  Rh1      1.0000 0.00023  0.00023  0.33539  Biso   1.000  Rh
  Rh2      1.0000 0.33273  0.00022  0.33539  Biso   1.000  Rh
  Rh3      1.0000 0.66592  0.00136  0.33520  Biso   1.000  Rh
  Rh4      1.0000 0.00022  0.33273  0.33539  Biso   1.000  Rh
  Rh5      1.0000 0.33338  0.33338  0.33525  Biso   1.000  Rh
  Rh6      1.0000 0.66645  0.33337  0.33526  Biso   1.000  Rh
  Rh7      1.0000 0.00137  0.66593  0.33520  Biso   1.000  Rh
  Rh8      1.0000 0.33337  0.66646  0.33525  Biso   1.000  Rh
  Rh9      1.0000 0.66590  0.66591  0.33521  Biso   1.000  Rh
  Rh10     1.0000 0.11103  0.11104  0.42800  Biso   1.000  Rh
  Rh11     1.0000 0.44496  0.11031  0.42843  Biso   1.000  Rh
  Rh12     1.0000 0.77790  0.11032  0.42844  Biso   1.000  Rh
  Rh13     1.0000 0.11030  0.44497  0.42843  Biso   1.000  Rh
  Rh14     1.0000 0.44438  0.44439  0.42800  Biso   1.000  Rh
  Rh15     1.0000 0.77789  0.44494  0.42844  Biso   1.000  Rh
  Rh16     1.0000 0.11032  0.77791  0.42844  Biso   1.000  Rh
  Rh17     1.0000 0.44493  0.77790  0.42844  Biso   1.000  Rh
  Rh18     1.0000 0.77773  0.77775  0.42580  Biso   1.000  Rh
  Rh19     1.0000 0.88943  0.22184  0.52029  Biso   1.000  Rh
  Rh20     1.0000 0.22184  0.22185  0.52025  Biso   1.000  Rh
  Rh21     1.0000 0.55561  0.22187  0.52048  Biso   1.000  Rh
  Rh22     1.0000 0.88891  0.55528  0.52126  Biso   1.000  Rh
  Rh23     1.0000 0.22186  0.55563  0.52048  Biso   1.000  Rh
  Rh24     1.0000 0.55559  0.55561  0.52049  Biso   1.000  Rh
  Rh25     1.0000 0.88896  0.88897  0.52130  Biso   1.000  Rh
  Rh26     1.0000 0.22182  0.88944  0.52029  Biso   1.000  Rh
  Rh27     1.0000 0.55526  0.88893  0.52126  Biso   1.000  Rh
  Rh28     1.0000 0.99833  0.99835  0.61668  Biso   1.000  Rh
  Rh29     1.0000 0.33690  0.99813  0.61655  Biso   1.000  Rh
  Rh30     1.0000 0.66630  0.00056  0.61323  Biso   1.000  Rh
  Rh31     1.0000 0.99811  0.33691  0.61655  Biso   1.000  Rh
  Rh32     1.0000 0.33584  0.33587  0.61310  Biso   1.000  Rh
  Rh33     1.0000 0.66135  0.33581  0.61312  Biso   1.000  Rh
  Rh34     1.0000 0.00054  0.66632  0.61323  Biso   1.000  Rh
  Rh35     1.0000 0.33578  0.66138  0.61312  Biso   1.000  Rh
  Rh36     1.0000 0.66622  0.66625  0.61323  Biso   1.000  Rh
  O1       1.0000 0.11169  0.11170  0.66887  Biso   1.000  O
