data_image0
_cell_length_a       8.1622
_cell_length_b       8.1622
_cell_length_c       17.6644
_cell_angle_alpha    90
_cell_angle_beta     90
_cell_angle_gamma    60

loop_
  _atom_site_label
  _atom_site_occupancy
  _atom_site_fract_x
  _atom_site_fract_y
  _atom_site_fract_z
  _atom_site_thermal_displace_type
  _atom_site_B_iso_or_equiv
  _atom_site_type_symbol
  Rh1      1.0000 -0.00548  -0.00556  -0.00243  Biso   1.000  Rh
  Rh2      1.0000 0.32939  -0.00299  0.00317  Biso   1.000  Rh
  Rh3      1.0000 0.66600  -0.00221  -0.00142  Biso   1.000  Rh
  Rh4      1.0000 -0.00278  0.32915  0.00324  Biso   1.000  Rh
  Rh5      1.0000 0.33443  0.33434  -0.00141  Biso   1.000  Rh
  Rh6      1.0000 0.66414  0.33180  -0.00145  Biso   1.000  Rh
  C1       1.0000 0.06137  0.05872  0.21097  Biso   1.000  C
  H1       1.0000 0.12561  0.12426  0.13658  Biso   1.000  H
  H2       1.0000 0.19874  -0.02843  0.23653  Biso   1.000  H
  H3       1.0000 -0.01004  -0.01411  0.19070  Biso   1.000  H
  H4       1.0000 -0.02699  0.19575  0.23661  Biso   1.000  H
  O1       1.0000 0.17808  0.17740  0.09323  Biso   1.000  O
  Rh7      1.0000 -0.00213  0.66590  -0.00142  Biso   1.000  Rh
  Rh8      1.0000 0.33189  0.66404  -0.00146  Biso   1.000  Rh
  Rh9      1.0000 0.66548  0.66534  -0.00090  Biso   1.000  Rh
  Rh10     1.0000 0.11061  0.11056  -0.12702  Biso   1.000  Rh
  Rh11     1.0000 0.44311  0.10985  -0.12645  Biso   1.000  Rh
  Rh12     1.0000 0.77670  0.11058  -0.12700  Biso   1.000  Rh
  Rh13     1.0000 0.10989  0.44306  -0.12644  Biso   1.000  Rh
  Rh14     1.0000 0.44355  0.44350  -0.12658  Biso   1.000  Rh
  Rh15     1.0000 0.77908  0.44326  -0.12472  Biso   1.000  Rh
  Rh16     1.0000 0.11062  0.77666  -0.12700  Biso   1.000  Rh
  Rh17     1.0000 0.44333  0.77899  -0.12473  Biso   1.000  Rh
  Rh18     1.0000 0.77697  0.77693  -0.12679  Biso   1.000  Rh
  Rh19     1.0000 0.22222  0.22222  -0.25152  Biso   1.000  Rh
  Rh20     1.0000 0.55556  0.22222  -0.25152  Biso   1.000  Rh
  Rh21     1.0000 0.88889  0.22222  -0.25152  Biso   1.000  Rh
  Rh22     1.0000 0.22222  0.55556  -0.25152  Biso   1.000  Rh
  Rh23     1.0000 0.55556  0.55556  -0.25152  Biso   1.000  Rh
  Rh24     1.0000 0.88889  0.55556  -0.25152  Biso   1.000  Rh
  Rh25     1.0000 0.22222  0.88889  -0.25152  Biso   1.000  Rh
  Rh26     1.0000 0.55556  0.88889  -0.25152  Biso   1.000  Rh
  Rh27     1.0000 0.88889  0.88889  -0.25152  Biso   1.000  Rh
  Rh28     1.0000 0.00000  0.00000  -0.37728  Biso   1.000  Rh
  Rh29     1.0000 0.33333  0.00000  -0.37728  Biso   1.000  Rh
  Rh30     1.0000 0.66667  0.00000  -0.37728  Biso   1.000  Rh
  Rh31     1.0000 -0.00000  0.33333  -0.37728  Biso   1.000  Rh
  Rh32     1.0000 0.33333  0.33333  -0.37728  Biso   1.000  Rh
  Rh33     1.0000 0.66667  0.33333  -0.37728  Biso   1.000  Rh
  Rh34     1.0000 -0.00000  0.66667  -0.37728  Biso   1.000  Rh
  Rh35     1.0000 0.33333  0.66667  -0.37728  Biso   1.000  Rh
  Rh36     1.0000 0.66667  0.66667  -0.37728  Biso   1.000  Rh
