data_image0
_cell_length_a       6.52149
_cell_length_b       6.28254
_cell_length_c       28.043
_cell_angle_alpha    90
_cell_angle_beta     90
_cell_angle_gamma    90

_symmetry_space_group_name_H-M    "P 1"
_symmetry_int_tables_number       1

loop_
  _symmetry_equiv_pos_as_xyz
  'x, y, z'

loop_
  _atom_site_label
  _atom_site_occupancy
  _atom_site_fract_x
  _atom_site_fract_y
  _atom_site_fract_z
  _atom_site_thermal_displace_type
  _atom_site_B_iso_or_equiv
  _atom_site_type_symbol
  Rh1      1.0000 0.40290  0.62500  0.05814  Biso   1.000  Rh
  O1       1.0000 0.40290  0.87500  0.01298  Biso   1.000  O
  O2       1.0000 0.40290  0.87500  0.10330  Biso   1.000  O
  O3       1.0000 0.70870  0.62500  0.05814  Biso   1.000  O
  O4       1.0000 0.09710  0.62500  0.05814  Biso   1.000  O
  O5       1.0000 0.20870  0.62500  0.17441  Biso   1.000  O
  Rh2      1.0000 0.90290  0.87500  0.05814  Biso   1.000  Rh
  Rh3      1.0000 0.90290  0.62500  0.17441  Biso   1.000  Rh
  O6       1.0000 0.90290  0.87500  0.12925  Biso   1.000  O
  O7       1.0000 0.90290  0.87500  0.21958  Biso   1.000  O
  O8       1.0000 0.59710  0.62500  0.17441  Biso   1.000  O
  Rh4      1.0000 0.40290  0.87500  0.17441  Biso   1.000  Rh
  Rh5      1.0000 0.40290  0.12500  0.05814  Biso   1.000  Rh
  O9       1.0000 0.40290  0.37500  0.01298  Biso   1.000  O
  O10      1.0000 0.40290  0.37500  0.10330  Biso   1.000  O
  O11      1.0000 0.70870  0.12500  0.05814  Biso   1.000  O
  O12      1.0000 0.09710  0.12500  0.05814  Biso   1.000  O
  O13      1.0000 0.20870  0.12500  0.17441  Biso   1.000  O
  Rh6      1.0000 0.90290  0.37500  0.05814  Biso   1.000  Rh
  Rh7      1.0000 0.90290  0.12500  0.17441  Biso   1.000  Rh
  O14      1.0000 0.90290  0.37500  0.12925  Biso   1.000  O
  O15      1.0000 0.90290  0.37500  0.21958  Biso   1.000  O
  O16      1.0000 0.59710  0.12500  0.17441  Biso   1.000  O
  Rh8      1.0000 0.40290  0.37500  0.17441  Biso   1.000  Rh
  Rh9      1.0000 0.40280  0.62754  0.29005  Biso   1.000  Rh
  O17      1.0000 0.40218  0.87516  0.24526  Biso   1.000  O
  O18      1.0000 0.40572  0.87494  0.33542  Biso   1.000  O
  O19      1.0000 0.70931  0.62526  0.29042  Biso   1.000  O
  O20      1.0000 0.09641  0.62534  0.29053  Biso   1.000  O
  O21      1.0000 0.21358  0.62209  0.40685  Biso   1.000  O
  Rh10     1.0000 0.90261  0.87465  0.29087  Biso   1.000  Rh
  Rh11     1.0000 0.90576  0.62501  0.40690  Biso   1.000  Rh
  O22      1.0000 0.90198  0.87445  0.36140  Biso   1.000  O
  O23      1.0000 0.90798  0.87685  0.44994  Biso   1.000  O
  O24      1.0000 0.59575  0.62253  0.40972  Biso   1.000  O
  Rh12     1.0000 0.40486  0.87345  0.40916  Biso   1.000  Rh
  Rh13     1.0000 0.40243  0.12199  0.29010  Biso   1.000  Rh
  O25      1.0000 0.40189  0.37450  0.24540  Biso   1.000  O
  O26      1.0000 0.40461  0.37488  0.33393  Biso   1.000  O
  O27      1.0000 0.70902  0.12401  0.29043  Biso   1.000  O
  O28      1.0000 0.09611  0.12406  0.29056  Biso   1.000  O
  O29      1.0000 0.21119  0.12760  0.40565  Biso   1.000  O
  Rh14     1.0000 0.90258  0.37474  0.29080  Biso   1.000  Rh
  Rh15     1.0000 0.90485  0.12529  0.40670  Biso   1.000  Rh
  O30      1.0000 0.90122  0.37513  0.36148  Biso   1.000  O
  O31      1.0000 0.90708  0.37417  0.45030  Biso   1.000  O
  O32      1.0000 0.59588  0.12530  0.40749  Biso   1.000  O
  Rh16     1.0000 0.40391  0.37358  0.40224  Biso   1.000  Rh
  O33      1.0000 0.38049  0.88942  0.47608  Biso   1.000  O
  C1       1.0000 0.61768  0.68270  0.52904  Biso   1.000  C
  H1       1.0000 0.74402  0.79322  0.53280  Biso   1.000  H
  H2       1.0000 0.51593  0.67043  0.55947  Biso   1.000  H
  H3       1.0000 0.65889  0.53315  0.51240  Biso   1.000  H
  H4       1.0000 0.50172  0.77890  0.49934  Biso   1.000  H
