data_image0
_cell_length_a       9.33403
_cell_length_b       9.33413
_cell_length_c       9.33383
_cell_angle_alpha    94.5421
_cell_angle_beta     94.5397
_cell_angle_gamma    94.5446

_symmetry_space_group_name_H-M    "P 1"
_symmetry_int_tables_number       1

loop_
  _symmetry_equiv_pos_as_xyz
  'x, y, z'

loop_
  _atom_site_label
  _atom_site_occupancy
  _atom_site_fract_x
  _atom_site_fract_y
  _atom_site_fract_z
  _atom_site_thermal_displace_type
  _atom_site_B_iso_or_equiv
  _atom_site_type_symbol
  O1       1.0000 0.72575  0.40437  0.96501  Biso   1.000  O
  O2       1.0000 0.50226  0.15693  0.39512  Biso   1.000  O
  O3       1.0000 0.38741  0.41502  0.31862  Biso   1.000  O
  O4       1.0000 0.80403  0.18468  0.09658  Biso   1.000  O
  O5       1.0000 0.73783  0.03947  0.31753  Biso   1.000  O
  O6       1.0000 0.50694  0.49799  0.09362  Biso   1.000  O
  O7       1.0000 0.23290  0.90835  0.16744  Biso   1.000  O
  O8       1.0000 0.44539  0.14565  0.73061  Biso   1.000  O
  O9       1.0000 0.22070  0.27728  0.80844  Biso   1.000  O
  O10      1.0000 0.44334  0.81394  0.02761  Biso   1.000  O
  O11      1.0000 0.57878  0.88603  0.80120  Biso   1.000  O
  O12      1.0000 0.15607  0.12657  0.02836  Biso   1.000  O
  O13      1.0000 0.72033  0.90545  0.06009  Biso   1.000  O
  O14      1.0000 0.47464  0.42708  0.81367  Biso   1.000  O
  O15      1.0000 0.19728  0.15542  0.31423  Biso   1.000  O
  O16      1.0000 0.22959  0.40641  0.06851  Biso   1.000  O
  O17      1.0000 0.49085  0.87837  0.30763  Biso   1.000  O
  O18      1.0000 0.74847  0.15690  0.81179  Biso   1.000  O
  O19      1.0000 0.62261  0.97103  0.55630  Biso   1.000  O
  O20      1.0000 0.98069  0.31424  0.93185  Biso   1.000  O
  O21      1.0000 0.31747  0.65450  0.21197  Biso   1.000  O
  O22      1.0000 0.34535  0.34205  0.56807  Biso   1.000  O
  O23      1.0000 0.97375  0.99225  0.18792  Biso   1.000  O
  O24      1.0000 0.63778  0.65570  0.91444  Biso   1.000  O
  Si1      1.0000 0.58692  0.49269  0.94705  Biso   1.000  Si
  Si2      1.0000 0.80992  0.03230  0.16623  Biso   1.000  Si
  Si3      1.0000 0.14081  0.04794  0.17688  Biso   1.000  Si
  Si4      1.0000 0.37018  0.29239  0.73218  Biso   1.000  Si
  Si5      1.0000 0.59462  0.81709  0.95547  Biso   1.000  Si
  Si6      1.0000 0.37017  0.81665  0.17964  Biso   1.000  Si
  Al1      1.0000 0.59941  0.05800  0.72827  Biso   1.000  Al
  Si7      1.0000 0.14602  0.27916  0.95873  Biso   1.000  Si
  Si8      1.0000 0.81398  0.26238  0.94725  Biso   1.000  Si
  Si9      1.0000 0.58760  0.01644  0.39224  Biso   1.000  Si
  Si10     1.0000 0.35874  0.49244  0.17172  Biso   1.000  Si
  Al2      1.0000 0.35014  0.24888  0.39402  Biso   1.000  Al
  Co1      1.0000 0.48006  0.50273  0.51298  Biso   1.000  Co
  O25      1.0000 0.65156  0.60868  0.51489  Biso   1.000  O
  Co2      1.0000 0.60306  0.76636  0.62143  Biso   1.000  Co
  C1       1.0000 0.84134  0.57435  0.33503  Biso   1.000  C
  H1       1.0000 0.73488  0.59210  0.43662  Biso   1.000  H
  H2       1.0000 0.81852  0.66110  0.26816  Biso   1.000  H
  H3       1.0000 0.81389  0.46619  0.28365  Biso   1.000  H
  H4       1.0000 0.94048  0.59151  0.40545  Biso   1.000  H
