data_image0
_cell_length_a       9.33403
_cell_length_b       9.33413
_cell_length_c       9.33383
_cell_angle_alpha    94.5421
_cell_angle_beta     94.5397
_cell_angle_gamma    94.5446

_symmetry_space_group_name_H-M    "P 1"
_symmetry_int_tables_number       1

loop_
  _symmetry_equiv_pos_as_xyz
  'x, y, z'

loop_
  _atom_site_label
  _atom_site_occupancy
  _atom_site_fract_x
  _atom_site_fract_y
  _atom_site_fract_z
  _atom_site_thermal_displace_type
  _atom_site_B_iso_or_equiv
  _atom_site_type_symbol
  O1       1.0000 0.25532  0.25340  0.90193  Biso   1.000  O
  O2       1.0000 0.02993  0.01150  0.31588  Biso   1.000  O
  O3       1.0000 0.90394  0.26706  0.25551  Biso   1.000  O
  O4       1.0000 0.32492  0.02705  0.03021  Biso   1.000  O
  O5       1.0000 0.25996  0.88198  0.25267  Biso   1.000  O
  O6       1.0000 0.03085  0.34011  0.02920  Biso   1.000  O
  O7       1.0000 0.75525  0.75311  0.10627  Biso   1.000  O
  O8       1.0000 0.97376  0.97948  0.66279  Biso   1.000  O
  O9       1.0000 0.75107  0.11386  0.74578  Biso   1.000  O
  O10      1.0000 0.97177  0.66493  0.97061  Biso   1.000  O
  O11      1.0000 0.09664  0.75419  0.74921  Biso   1.000  O
  O12      1.0000 0.68284  0.97182  0.96751  Biso   1.000  O
  O13      1.0000 0.25080  0.74642  0.99514  Biso   1.000  O
  O14      1.0000 0.00608  0.25937  0.75234  Biso   1.000  O
  O15      1.0000 0.72195  0.00227  0.25298  Biso   1.000  O
  O16      1.0000 0.75015  0.25306  0.00102  Biso   1.000  O
  O17      1.0000 0.00860  0.73166  0.25479  Biso   1.000  O
  O18      1.0000 0.25308  0.00272  0.74782  Biso   1.000  O
  O19      1.0000 0.15483  0.85162  0.50105  Biso   1.000  O
  O20      1.0000 0.50184  0.14597  0.85586  Biso   1.000  O
  O21      1.0000 0.84372  0.50204  0.14714  Biso   1.000  O
  O22      1.0000 0.87388  0.18105  0.50603  Biso   1.000  O
  O23      1.0000 0.49883  0.84085  0.12727  Biso   1.000  O
  O24      1.0000 0.15505  0.50304  0.84833  Biso   1.000  O
  Si1      1.0000 0.11351  0.33971  0.88351  Biso   1.000  Si
  Si2      1.0000 0.33355  0.87502  0.10283  Biso   1.000  Si
  Si3      1.0000 0.66568  0.89372  0.11634  Biso   1.000  Si
  Si4      1.0000 0.89964  0.12992  0.66892  Biso   1.000  Si
  Si5      1.0000 0.11885  0.66734  0.89001  Biso   1.000  Si
  Si6      1.0000 0.89644  0.66670  0.12094  Biso   1.000  Si
  Si7      1.0000 0.12113  0.89627  0.66421  Biso   1.000  Si
  Si8      1.0000 0.67011  0.12084  0.89322  Biso   1.000  Si
  Si9      1.0000 0.33429  0.10595  0.88277  Biso   1.000  Si
  Si10     1.0000 0.11191  0.86993  0.33182  Biso   1.000  Si
  Si11     1.0000 0.88075  0.33978  0.10413  Biso   1.000  Si
  Al1      1.0000 0.87631  0.09680  0.32690  Biso   1.000  Al
  Co1      1.0000 0.96936  0.37038  0.44962  Biso   1.000  Co
  O25      1.0000 0.09085  0.51775  0.50319  Biso   1.000  O
  H1       1.0000 0.22235  0.52163  0.49940  Biso   1.000  H
  C1       1.0000 0.35802  0.51268  0.50041  Biso   1.000  C
  H2       1.0000 0.40296  0.62373  0.49814  Biso   1.000  H
  H3       1.0000 0.38422  0.46701  0.60165  Biso   1.000  H
  H4       1.0000 0.37483  0.44215  0.40579  Biso   1.000  H
