data_image0
_cell_length_a       9.33403
_cell_length_b       9.33413
_cell_length_c       9.33383
_cell_angle_alpha    94.5421
_cell_angle_beta     94.5397
_cell_angle_gamma    94.5446

_symmetry_space_group_name_H-M    "P 1"
_symmetry_int_tables_number       1

loop_
  _symmetry_equiv_pos_as_xyz
  'x, y, z'

loop_
  _atom_site_label
  _atom_site_occupancy
  _atom_site_fract_x
  _atom_site_fract_y
  _atom_site_fract_z
  _atom_site_thermal_displace_type
  _atom_site_B_iso_or_equiv
  _atom_site_type_symbol
  O1       1.0000 0.72424  0.40227  0.97095  Biso   1.000  O
  O2       1.0000 0.49825  0.15974  0.39996  Biso   1.000  O
  O3       1.0000 0.37848  0.41894  0.32852  Biso   1.000  O
  O4       1.0000 0.80815  0.18204  0.09835  Biso   1.000  O
  O5       1.0000 0.72596  0.03702  0.31639  Biso   1.000  O
  O6       1.0000 0.50121  0.48449  0.09904  Biso   1.000  O
  O7       1.0000 0.22312  0.90560  0.16403  Biso   1.000  O
  O8       1.0000 0.44099  0.13547  0.74264  Biso   1.000  O
  O9       1.0000 0.21918  0.27403  0.81525  Biso   1.000  O
  O10      1.0000 0.44106  0.82009  0.03015  Biso   1.000  O
  O11      1.0000 0.58200  0.88015  0.80379  Biso   1.000  O
  O12      1.0000 0.13874  0.12390  0.03095  Biso   1.000  O
  O13      1.0000 0.72070  0.90389  0.06135  Biso   1.000  O
  O14      1.0000 0.47604  0.41925  0.81758  Biso   1.000  O
  O15      1.0000 0.19386  0.15398  0.31527  Biso   1.000  O
  O16      1.0000 0.22251  0.40169  0.07667  Biso   1.000  O
  O17      1.0000 0.47598  0.88110  0.31194  Biso   1.000  O
  O18      1.0000 0.74544  0.15560  0.81372  Biso   1.000  O
  O19      1.0000 0.61730  0.96910  0.55813  Biso   1.000  O
  O20      1.0000 0.97665  0.31666  0.92935  Biso   1.000  O
  O21      1.0000 0.31433  0.65337  0.20684  Biso   1.000  O
  O22      1.0000 0.34503  0.33468  0.57636  Biso   1.000  O
  O23      1.0000 0.96832  0.98706  0.20281  Biso   1.000  O
  O24      1.0000 0.63209  0.65161  0.92907  Biso   1.000  O
  Si1      1.0000 0.58321  0.48684  0.95410  Biso   1.000  Si
  Si2      1.0000 0.80563  0.03075  0.16976  Biso   1.000  Si
  Si3      1.0000 0.13319  0.04577  0.18037  Biso   1.000  Si
  Si4      1.0000 0.36906  0.28401  0.73985  Biso   1.000  Si
  Si5      1.0000 0.59258  0.81527  0.95967  Biso   1.000  Si
  Si6      1.0000 0.36270  0.81714  0.17896  Biso   1.000  Si
  Al1      1.0000 0.59748  0.05250  0.73204  Biso   1.000  Al
  Si7      1.0000 0.13973  0.27794  0.96258  Biso   1.000  Si
  Si8      1.0000 0.81205  0.26078  0.94876  Biso   1.000  Si
  Si9      1.0000 0.57826  0.01601  0.39528  Biso   1.000  Si
  Si10     1.0000 0.35290  0.48932  0.17722  Biso   1.000  Si
  Al2      1.0000 0.34429  0.24932  0.39862  Biso   1.000  Al
  Co1      1.0000 0.48225  0.49963  0.52653  Biso   1.000  Co
  O25      1.0000 0.65761  0.60166  0.52518  Biso   1.000  O
  Co2      1.0000 0.60544  0.76172  0.62353  Biso   1.000  Co
  C1       1.0000 0.84789  0.58564  0.34306  Biso   1.000  C
  H1       1.0000 0.74968  0.59291  0.44051  Biso   1.000  H
  H2       1.0000 0.78270  0.59931  0.24362  Biso   1.000  H
  H3       1.0000 0.88044  0.47629  0.34879  Biso   1.000  H
  O26      1.0000 0.96183  0.68708  0.37950  Biso   1.000  O
  H4       1.0000 0.94378  0.77783  0.34102  Biso   1.000  H
