data_image0
_cell_length_a       9.33403
_cell_length_b       9.33413
_cell_length_c       9.33383
_cell_angle_alpha    94.5421
_cell_angle_beta     94.5397
_cell_angle_gamma    94.5446

_symmetry_space_group_name_H-M    "P 1"
_symmetry_int_tables_number       1

loop_
  _symmetry_equiv_pos_as_xyz
  'x, y, z'

loop_
  _atom_site_label
  _atom_site_occupancy
  _atom_site_fract_x
  _atom_site_fract_y
  _atom_site_fract_z
  _atom_site_thermal_displace_type
  _atom_site_B_iso_or_equiv
  _atom_site_type_symbol
  O1       1.0000 0.72439  0.40332  0.96479  Biso   1.000  O
  O2       1.0000 0.50096  0.15728  0.38770  Biso   1.000  O
  O3       1.0000 0.38396  0.41730  0.31971  Biso   1.000  O
  O4       1.0000 0.80605  0.18498  0.09641  Biso   1.000  O
  O5       1.0000 0.73887  0.04050  0.31753  Biso   1.000  O
  O6       1.0000 0.50504  0.49599  0.09327  Biso   1.000  O
  O7       1.0000 0.23443  0.91026  0.16774  Biso   1.000  O
  O8       1.0000 0.44671  0.14508  0.73829  Biso   1.000  O
  O9       1.0000 0.22065  0.27774  0.80905  Biso   1.000  O
  O10      1.0000 0.44290  0.81480  0.02573  Biso   1.000  O
  O11      1.0000 0.58108  0.88503  0.80016  Biso   1.000  O
  O12      1.0000 0.15489  0.12718  0.02829  Biso   1.000  O
  O13      1.0000 0.71974  0.90644  0.05985  Biso   1.000  O
  O14      1.0000 0.47456  0.42889  0.81209  Biso   1.000  O
  O15      1.0000 0.19439  0.15632  0.31430  Biso   1.000  O
  O16      1.0000 0.22714  0.40738  0.06875  Biso   1.000  O
  O17      1.0000 0.49272  0.87793  0.30567  Biso   1.000  O
  O18      1.0000 0.74930  0.15630  0.81130  Biso   1.000  O
  O19      1.0000 0.62034  0.97316  0.55486  Biso   1.000  O
  O20      1.0000 0.97993  0.31514  0.93015  Biso   1.000  O
  O21      1.0000 0.31692  0.65555  0.21008  Biso   1.000  O
  O22      1.0000 0.34710  0.33736  0.56894  Biso   1.000  O
  O23      1.0000 0.97357  0.99045  0.18709  Biso   1.000  O
  O24      1.0000 0.63858  0.65560  0.91727  Biso   1.000  O
  Si1      1.0000 0.58630  0.49255  0.94749  Biso   1.000  Si
  Si2      1.0000 0.81036  0.03243  0.16590  Biso   1.000  Si
  Si3      1.0000 0.14014  0.04816  0.17666  Biso   1.000  Si
  Si4      1.0000 0.37079  0.29090  0.73444  Biso   1.000  Si
  Si5      1.0000 0.59492  0.81725  0.95497  Biso   1.000  Si
  Si6      1.0000 0.37085  0.81747  0.17830  Biso   1.000  Si
  Al1      1.0000 0.60013  0.05717  0.72855  Biso   1.000  Al
  Si7      1.0000 0.14486  0.27978  0.95877  Biso   1.000  Si
  Si8      1.0000 0.81383  0.26223  0.94669  Biso   1.000  Si
  Si9      1.0000 0.58744  0.01739  0.39013  Biso   1.000  Si
  Si10     1.0000 0.35691  0.49285  0.17166  Biso   1.000  Si
  Al2      1.0000 0.34861  0.24915  0.39178  Biso   1.000  Al
  Co1      1.0000 0.48014  0.50301  0.52054  Biso   1.000  Co
  O25      1.0000 0.65696  0.60430  0.52139  Biso   1.000  O
  Co2      1.0000 0.60539  0.76635  0.62007  Biso   1.000  Co
  C1       1.0000 0.84172  0.57444  0.33405  Biso   1.000  C
  H1       1.0000 0.73665  0.59083  0.44006  Biso   1.000  H
  H2       1.0000 0.81661  0.66030  0.26677  Biso   1.000  H
  H3       1.0000 0.81403  0.46576  0.28414  Biso   1.000  H
  H4       1.0000 0.94165  0.59276  0.40313  Biso   1.000  H
