data_image0
_cell_length_a       9.46362
_cell_length_b       9.46352
_cell_length_c       9.4638
_cell_angle_alpha    94.5227
_cell_angle_beta     94.5193
_cell_angle_gamma    94.5229

_symmetry_space_group_name_H-M    "P 1"
_symmetry_int_tables_number       1

loop_
  _symmetry_equiv_pos_as_xyz
  'x, y, z'

loop_
  _atom_site_label
  _atom_site_occupancy
  _atom_site_fract_x
  _atom_site_fract_y
  _atom_site_fract_z
  _atom_site_thermal_displace_type
  _atom_site_B_iso_or_equiv
  _atom_site_type_symbol
  P1       1.0000 0.11389  0.32820  0.87697  Biso   1.000  P
  Si1      1.0000 0.87546  0.10756  0.32533  Biso   1.000  Si
  P2       1.0000 0.33314  0.86630  0.09974  Biso   1.000  P
  Al1      1.0000 0.66410  0.89866  0.11933  Biso   1.000  Al
  Al2      1.0000 0.89979  0.11488  0.66357  Biso   1.000  Al
  Al3      1.0000 0.12195  0.66012  0.88646  Biso   1.000  Al
  P3       1.0000 0.89067  0.66559  0.10866  Biso   1.000  P
  P4       1.0000 0.12288  0.88475  0.65289  Biso   1.000  P
  P5       1.0000 0.66543  0.11523  0.88056  Biso   1.000  P
  Al4      1.0000 0.33320  0.09475  0.86702  Biso   1.000  Al
  Al5      1.0000 0.10207  0.87319  0.32023  Biso   1.000  Al
  Al6      1.0000 0.87602  0.33420  0.09104  Biso   1.000  Al
  O1       1.0000 0.25081  0.25334  0.89422  Biso   1.000  O
  O2       1.0000 0.01588  0.02669  0.30756  Biso   1.000  O
  O3       1.0000 0.88786  0.26710  0.25975  Biso   1.000  O
  O4       1.0000 0.32355  0.00067  0.01852  Biso   1.000  O
  O5       1.0000 0.26085  0.88822  0.23734  Biso   1.000  O
  O6       1.0000 0.03963  0.32558  0.01601  Biso   1.000  O
  O7       1.0000 0.75982  0.74892  0.09963  Biso   1.000  O
  O8       1.0000 0.98151  0.95495  0.66128  Biso   1.000  O
  O9       1.0000 0.74026  0.09719  0.74353  Biso   1.000  O
  O10      1.0000 0.96180  0.67187  0.96789  Biso   1.000  O
  O11      1.0000 0.11552  0.75122  0.73359  Biso   1.000  O
  O12      1.0000 0.67182  0.97913  0.95712  Biso   1.000  O
  O13      1.0000 0.26181  0.73579  0.00713  Biso   1.000  O
  O14      1.0000 0.01432  0.25338  0.75336  Biso   1.000  O
  O15      1.0000 0.73211  0.01717  0.26045  Biso   1.000  O
  O16      1.0000 0.73814  0.24381  0.97650  Biso   1.000  O
  O17      1.0000 0.99584  0.72263  0.23588  Biso   1.000  O
  O18      1.0000 0.24698  0.99118  0.71804  Biso   1.000  O
  O19      1.0000 0.14607  0.84127  0.49824  Biso   1.000  O
  O20      1.0000 0.51090  0.14419  0.84032  Biso   1.000  O
  O21      1.0000 0.84040  0.51064  0.12807  Biso   1.000  O
  O22      1.0000 0.86587  0.17121  0.49256  Biso   1.000  O
  O23      1.0000 0.48780  0.83966  0.13725  Biso   1.000  O
  O24      1.0000 0.15132  0.48169  0.84353  Biso   1.000  O
  Co1      1.0000 0.86845  0.38365  0.44594  Biso   1.000  Co
  O25      1.0000 0.81944  0.52509  0.55119  Biso   1.000  O
  C1       1.0000 0.62345  0.56202  0.71874  Biso   1.000  C
  H1       1.0000 0.67788  0.63808  0.80142  Biso   1.000  H
  H2       1.0000 0.59971  0.45466  0.75110  Biso   1.000  H
  H3       1.0000 0.72487  0.54342  0.62747  Biso   1.000  H
  O26      1.0000 0.50823  0.62157  0.65371  Biso   1.000  O
  H4       1.0000 0.44792  0.54876  0.59490  Biso   1.000  H
