data_image0
_cell_length_a       9.33403
_cell_length_b       9.33413
_cell_length_c       9.33383
_cell_angle_alpha    94.5421
_cell_angle_beta     94.5397
_cell_angle_gamma    94.5446

_symmetry_space_group_name_H-M    "P 1"
_symmetry_int_tables_number       1

loop_
  _symmetry_equiv_pos_as_xyz
  'x, y, z'

loop_
  _atom_site_label
  _atom_site_occupancy
  _atom_site_fract_x
  _atom_site_fract_y
  _atom_site_fract_z
  _atom_site_thermal_displace_type
  _atom_site_B_iso_or_equiv
  _atom_site_type_symbol
  O1       1.0000 0.25717  0.25313  0.90101  Biso   1.000  O
  O2       1.0000 0.02240  0.00702  0.31038  Biso   1.000  O
  O3       1.0000 0.89472  0.26994  0.25748  Biso   1.000  O
  O4       1.0000 0.33002  0.02052  0.02077  Biso   1.000  O
  O5       1.0000 0.26252  0.89188  0.25072  Biso   1.000  O
  O6       1.0000 0.03411  0.33552  0.03441  Biso   1.000  O
  O7       1.0000 0.76237  0.75943  0.11545  Biso   1.000  O
  O8       1.0000 0.97611  0.97565  0.66205  Biso   1.000  O
  O9       1.0000 0.75060  0.10305  0.74413  Biso   1.000  O
  O10      1.0000 0.97047  0.67390  0.96435  Biso   1.000  O
  O11      1.0000 0.11022  0.75447  0.74684  Biso   1.000  O
  O12      1.0000 0.67708  0.97190  0.97008  Biso   1.000  O
  O13      1.0000 0.24986  0.74102  0.99901  Biso   1.000  O
  O14      1.0000 0.00343  0.25324  0.75887  Biso   1.000  O
  O15      1.0000 0.71608  0.00582  0.25572  Biso   1.000  O
  O16      1.0000 0.75382  0.25126  0.99696  Biso   1.000  O
  O17      1.0000 0.02046  0.72634  0.24862  Biso   1.000  O
  O18      1.0000 0.25645  0.00757  0.73965  Biso   1.000  O
  O19      1.0000 0.15545  0.85277  0.49636  Biso   1.000  O
  O20      1.0000 0.50396  0.15035  0.85100  Biso   1.000  O
  O21      1.0000 0.84511  0.50347  0.13692  Biso   1.000  O
  O22      1.0000 0.87503  0.17964  0.50839  Biso   1.000  O
  O23      1.0000 0.49911  0.83433  0.12787  Biso   1.000  O
  O24      1.0000 0.14848  0.50031  0.84886  Biso   1.000  O
  Si1      1.0000 0.11330  0.33672  0.88635  Biso   1.000  Si
  Si2      1.0000 0.33535  0.87247  0.10046  Biso   1.000  Si
  Si3      1.0000 0.66435  0.89416  0.11938  Biso   1.000  Si
  Si4      1.0000 0.90021  0.12470  0.67067  Biso   1.000  Si
  Si5      1.0000 0.12014  0.66704  0.88826  Biso   1.000  Si
  Si6      1.0000 0.90089  0.66918  0.11747  Biso   1.000  Si
  Si7      1.0000 0.12602  0.89645  0.66074  Biso   1.000  Si
  Si8      1.0000 0.67004  0.11866  0.89179  Biso   1.000  Si
  Si9      1.0000 0.33708  0.10609  0.87794  Biso   1.000  Si
  Si10     1.0000 0.11352  0.87059  0.32703  Biso   1.000  Si
  Si11     1.0000 0.88081  0.33946  0.10282  Biso   1.000  Si
  Al1      1.0000 0.87251  0.09743  0.32741  Biso   1.000  Al
  Cu1      1.0000 0.95931  0.37051  0.45128  Biso   1.000  Cu
  O25      1.0000 0.09057  0.50540  0.50235  Biso   1.000  O
  H1       1.0000 0.37029  0.45745  0.56855  Biso   1.000  H
  C1       1.0000 0.47001  0.42346  0.52587  Biso   1.000  C
  H2       1.0000 0.50940  0.50345  0.45586  Biso   1.000  H
  H3       1.0000 0.44623  0.31907  0.46214  Biso   1.000  H
  O26      1.0000 0.58271  0.41815  0.63923  Biso   1.000  O
  H4       1.0000 0.55240  0.34425  0.70003  Biso   1.000  H
