data_image0
_cell_length_a       9.33403
_cell_length_b       9.33413
_cell_length_c       9.33383
_cell_angle_alpha    94.5421
_cell_angle_beta     94.5397
_cell_angle_gamma    94.5446

_symmetry_space_group_name_H-M    "P 1"
_symmetry_int_tables_number       1

loop_
  _symmetry_equiv_pos_as_xyz
  'x, y, z'

loop_
  _atom_site_label
  _atom_site_occupancy
  _atom_site_fract_x
  _atom_site_fract_y
  _atom_site_fract_z
  _atom_site_thermal_displace_type
  _atom_site_B_iso_or_equiv
  _atom_site_type_symbol
  O1       1.0000 0.25755  0.25319  0.89975  Biso   1.000  O
  O2       1.0000 0.02340  0.00358  0.31144  Biso   1.000  O
  O3       1.0000 0.90335  0.26451  0.25188  Biso   1.000  O
  O4       1.0000 0.32820  0.02649  0.02876  Biso   1.000  O
  O5       1.0000 0.26224  0.88403  0.25157  Biso   1.000  O
  O6       1.0000 0.03224  0.33859  0.02837  Biso   1.000  O
  O7       1.0000 0.76427  0.75851  0.11913  Biso   1.000  O
  O8       1.0000 0.97444  0.97524  0.66220  Biso   1.000  O
  O9       1.0000 0.75242  0.10652  0.74488  Biso   1.000  O
  O10      1.0000 0.97387  0.67493  0.97028  Biso   1.000  O
  O11      1.0000 0.10093  0.75006  0.74483  Biso   1.000  O
  O12      1.0000 0.68377  0.96951  0.96881  Biso   1.000  O
  O13      1.0000 0.25284  0.74603  0.99394  Biso   1.000  O
  O14      1.0000 0.00736  0.25505  0.75276  Biso   1.000  O
  O15      1.0000 0.71830  0.00587  0.25513  Biso   1.000  O
  O16      1.0000 0.75064  0.25166  0.99723  Biso   1.000  O
  O17      1.0000 0.02167  0.71976  0.25597  Biso   1.000  O
  O18      1.0000 0.25343  0.00152  0.74690  Biso   1.000  O
  O19      1.0000 0.15575  0.84821  0.49908  Biso   1.000  O
  O20      1.0000 0.50322  0.14197  0.85212  Biso   1.000  O
  O21      1.0000 0.84464  0.50125  0.13741  Biso   1.000  O
  O22      1.0000 0.87644  0.17803  0.50626  Biso   1.000  O
  O23      1.0000 0.50071  0.83781  0.12675  Biso   1.000  O
  O24      1.0000 0.15237  0.50213  0.84695  Biso   1.000  O
  Si1      1.0000 0.11380  0.33747  0.88306  Biso   1.000  Si
  Si2      1.0000 0.33635  0.87478  0.10145  Biso   1.000  Si
  Si3      1.0000 0.66779  0.89483  0.11970  Biso   1.000  Si
  Si4      1.0000 0.90033  0.12656  0.66741  Biso   1.000  Si
  Si5      1.0000 0.12008  0.66776  0.88944  Biso   1.000  Si
  Si6      1.0000 0.90122  0.66611  0.12157  Biso   1.000  Si
  Si7      1.0000 0.12234  0.89509  0.66292  Biso   1.000  Si
  Si8      1.0000 0.67162  0.11751  0.89205  Biso   1.000  Si
  Si9      1.0000 0.33612  0.10530  0.88108  Biso   1.000  Si
  Si10     1.0000 0.11362  0.86914  0.32940  Biso   1.000  Si
  Si11     1.0000 0.88116  0.33677  0.10283  Biso   1.000  Si
  Al1      1.0000 0.87483  0.09960  0.32649  Biso   1.000  Al
  Cu1      1.0000 0.00200  0.35262  0.45745  Biso   1.000  Cu
  O25      1.0000 0.15071  0.49122  0.43990  Biso   1.000  O
  H1       1.0000 0.26602  0.52942  0.50169  Biso   1.000  H
  C1       1.0000 0.40165  0.57783  0.55657  Biso   1.000  C
  H2       1.0000 0.41029  0.68884  0.52886  Biso   1.000  H
  H3       1.0000 0.40143  0.56451  0.67108  Biso   1.000  H
  H4       1.0000 0.46718  0.50541  0.49855  Biso   1.000  H
  H5       1.0000 0.12388  0.57393  0.39053  Biso   1.000  H
