data_image0
_cell_length_a       9.33403
_cell_length_b       9.33413
_cell_length_c       9.33383
_cell_angle_alpha    94.5421
_cell_angle_beta     94.5397
_cell_angle_gamma    94.5446

_symmetry_space_group_name_H-M    "P 1"
_symmetry_int_tables_number       1

loop_
  _symmetry_equiv_pos_as_xyz
  'x, y, z'

loop_
  _atom_site_label
  _atom_site_occupancy
  _atom_site_fract_x
  _atom_site_fract_y
  _atom_site_fract_z
  _atom_site_thermal_displace_type
  _atom_site_B_iso_or_equiv
  _atom_site_type_symbol
  O1       1.0000 0.72365  0.40353  0.96327  Biso   1.000  O
  O2       1.0000 0.49892  0.16375  0.37584  Biso   1.000  O
  O3       1.0000 0.38486  0.42306  0.32479  Biso   1.000  O
  O4       1.0000 0.81039  0.18753  0.09494  Biso   1.000  O
  O5       1.0000 0.74076  0.04779  0.31408  Biso   1.000  O
  O6       1.0000 0.50419  0.49228  0.09224  Biso   1.000  O
  O7       1.0000 0.23594  0.91206  0.16533  Biso   1.000  O
  O8       1.0000 0.44851  0.14820  0.74517  Biso   1.000  O
  O9       1.0000 0.22200  0.28310  0.81119  Biso   1.000  O
  O10      1.0000 0.44375  0.81646  0.02124  Biso   1.000  O
  O11      1.0000 0.58218  0.88381  0.79309  Biso   1.000  O
  O12      1.0000 0.15314  0.12820  0.02649  Biso   1.000  O
  O13      1.0000 0.71823  0.90967  0.05663  Biso   1.000  O
  O14      1.0000 0.47538  0.43409  0.80877  Biso   1.000  O
  O15      1.0000 0.19044  0.15714  0.31210  Biso   1.000  O
  O16      1.0000 0.22637  0.40681  0.07563  Biso   1.000  O
  O17      1.0000 0.49479  0.88415  0.30260  Biso   1.000  O
  O18      1.0000 0.75043  0.15709  0.81063  Biso   1.000  O
  O19      1.0000 0.62332  0.99216  0.55106  Biso   1.000  O
  O20      1.0000 0.98078  0.31929  0.92842  Biso   1.000  O
  O21      1.0000 0.32127  0.65913  0.20923  Biso   1.000  O
  O22      1.0000 0.34804  0.33339  0.56823  Biso   1.000  O
  O23      1.0000 0.97304  0.98779  0.18413  Biso   1.000  O
  O24      1.0000 0.64171  0.65699  0.92202  Biso   1.000  O
  Si1      1.0000 0.58693  0.49451  0.94692  Biso   1.000  Si
  Si2      1.0000 0.81087  0.03375  0.16189  Biso   1.000  Si
  Si3      1.0000 0.13883  0.04775  0.17395  Biso   1.000  Si
  Si4      1.0000 0.37210  0.29267  0.73669  Biso   1.000  Si
  Si5      1.0000 0.59587  0.81936  0.94795  Biso   1.000  Si
  Si6      1.0000 0.37409  0.82115  0.17457  Biso   1.000  Si
  Al1      1.0000 0.60014  0.05696  0.72967  Biso   1.000  Al
  Si7      1.0000 0.14474  0.28255  0.96023  Biso   1.000  Si
  Si8      1.0000 0.81485  0.26391  0.94476  Biso   1.000  Si
  Si9      1.0000 0.58839  0.02631  0.38460  Biso   1.000  Si
  Si10     1.0000 0.35826  0.49561  0.17321  Biso   1.000  Si
  Al2      1.0000 0.34428  0.24958  0.38836  Biso   1.000  Al
  Cu1      1.0000 0.48954  0.48165  0.51816  Biso   1.000  Cu
  O25      1.0000 0.65229  0.59911  0.52979  Biso   1.000  O
  Cu2      1.0000 0.63359  0.78633  0.58678  Biso   1.000  Cu
  C1       1.0000 0.84356  0.54730  0.35749  Biso   1.000  C
  H1       1.0000 0.74039  0.57434  0.44374  Biso   1.000  H
  H2       1.0000 0.84028  0.62823  0.28006  Biso   1.000  H
  H3       1.0000 0.81357  0.43728  0.31164  Biso   1.000  H
  H4       1.0000 0.93814  0.56096  0.43487  Biso   1.000  H
