data_image0
_cell_length_a       9.46362
_cell_length_b       9.46352
_cell_length_c       9.4638
_cell_angle_alpha    94.5227
_cell_angle_beta     94.5193
_cell_angle_gamma    94.5229

_symmetry_space_group_name_H-M    "P 1"
_symmetry_int_tables_number       1

loop_
  _symmetry_equiv_pos_as_xyz
  'x, y, z'

loop_
  _atom_site_label
  _atom_site_occupancy
  _atom_site_fract_x
  _atom_site_fract_y
  _atom_site_fract_z
  _atom_site_thermal_displace_type
  _atom_site_B_iso_or_equiv
  _atom_site_type_symbol
  P1       1.0000 0.11100  0.32732  0.88228  Biso   1.000  P
  Si1      1.0000 0.87467  0.10706  0.32746  Biso   1.000  Si
  P2       1.0000 0.33199  0.86432  0.10153  Biso   1.000  P
  Al1      1.0000 0.66226  0.89811  0.12067  Biso   1.000  Al
  Al2      1.0000 0.89836  0.11403  0.66803  Biso   1.000  Al
  Al3      1.0000 0.12098  0.65908  0.88830  Biso   1.000  Al
  P3       1.0000 0.88844  0.66666  0.10946  Biso   1.000  P
  P4       1.0000 0.12151  0.88540  0.65548  Biso   1.000  P
  P5       1.0000 0.66239  0.11721  0.88359  Biso   1.000  P
  Al4      1.0000 0.33080  0.09524  0.86985  Biso   1.000  Al
  Al5      1.0000 0.10049  0.87492  0.32175  Biso   1.000  Al
  Al6      1.0000 0.87248  0.33532  0.09596  Biso   1.000  Al
  O1       1.0000 0.24758  0.25229  0.90114  Biso   1.000  O
  O2       1.0000 0.01734  0.03030  0.30886  Biso   1.000  O
  O3       1.0000 0.88147  0.26732  0.26447  Biso   1.000  O
  O4       1.0000 0.32270  0.99788  0.01924  Biso   1.000  O
  O5       1.0000 0.25912  0.88669  0.23867  Biso   1.000  O
  O6       1.0000 0.03575  0.32506  0.02073  Biso   1.000  O
  O7       1.0000 0.75649  0.74818  0.09664  Biso   1.000  O
  O8       1.0000 0.97879  0.95314  0.66605  Biso   1.000  O
  O9       1.0000 0.73800  0.09845  0.74699  Biso   1.000  O
  O10      1.0000 0.96133  0.67243  0.96982  Biso   1.000  O
  O11      1.0000 0.11798  0.75213  0.73652  Biso   1.000  O
  O12      1.0000 0.66789  0.98072  0.95978  Biso   1.000  O
  O13      1.0000 0.26181  0.73324  0.00910  Biso   1.000  O
  O14      1.0000 0.01235  0.25175  0.75839  Biso   1.000  O
  O15      1.0000 0.73321  0.01316  0.26317  Biso   1.000  O
  O16      1.0000 0.73487  0.24539  0.97999  Biso   1.000  O
  O17      1.0000 0.99113  0.72667  0.23753  Biso   1.000  O
  O18      1.0000 0.24499  0.99346  0.71911  Biso   1.000  O
  O19      1.0000 0.14298  0.84289  0.50020  Biso   1.000  O
  O20      1.0000 0.50809  0.14584  0.84213  Biso   1.000  O
  O21      1.0000 0.83896  0.51226  0.13110  Biso   1.000  O
  O22      1.0000 0.86365  0.16730  0.49571  Biso   1.000  O
  O23      1.0000 0.48665  0.83871  0.14072  Biso   1.000  O
  O24      1.0000 0.14888  0.48023  0.84804  Biso   1.000  O
  Cu1      1.0000 0.86049  0.37436  0.45309  Biso   1.000  Cu
  O25      1.0000 0.85979  0.52619  0.57512  Biso   1.000  O
  C1       1.0000 0.63060  0.56427  0.68982  Biso   1.000  C
  H1       1.0000 0.66949  0.64467  0.77555  Biso   1.000  H
  H2       1.0000 0.59884  0.46020  0.72410  Biso   1.000  H
  H3       1.0000 0.74832  0.54537  0.62679  Biso   1.000  H
  H4       1.0000 0.55822  0.60017  0.60780  Biso   1.000  H
