data_image0
_cell_length_a       9.33403
_cell_length_b       9.33413
_cell_length_c       9.33383
_cell_angle_alpha    94.5421
_cell_angle_beta     94.5397
_cell_angle_gamma    94.5446

_symmetry_space_group_name_H-M    "P 1"
_symmetry_int_tables_number       1

loop_
  _symmetry_equiv_pos_as_xyz
  'x, y, z'

loop_
  _atom_site_label
  _atom_site_occupancy
  _atom_site_fract_x
  _atom_site_fract_y
  _atom_site_fract_z
  _atom_site_thermal_displace_type
  _atom_site_B_iso_or_equiv
  _atom_site_type_symbol
  O1       1.0000 0.25481  0.25327  0.90246  Biso   1.000  O
  O2       1.0000 0.03208  0.01410  0.31693  Biso   1.000  O
  O3       1.0000 0.90157  0.26754  0.25828  Biso   1.000  O
  O4       1.0000 0.32075  0.02649  0.03167  Biso   1.000  O
  O5       1.0000 0.26070  0.88057  0.25431  Biso   1.000  O
  O6       1.0000 0.03082  0.33966  0.03053  Biso   1.000  O
  O7       1.0000 0.75382  0.75146  0.10517  Biso   1.000  O
  O8       1.0000 0.97398  0.97990  0.66636  Biso   1.000  O
  O9       1.0000 0.75037  0.11506  0.74740  Biso   1.000  O
  O10      1.0000 0.97201  0.66468  0.97152  Biso   1.000  O
  O11      1.0000 0.09746  0.75308  0.74923  Biso   1.000  O
  O12      1.0000 0.68481  0.97172  0.96848  Biso   1.000  O
  O13      1.0000 0.25110  0.74570  0.99605  Biso   1.000  O
  O14      1.0000 0.00554  0.26029  0.75255  Biso   1.000  O
  O15      1.0000 0.72319  0.00055  0.25390  Biso   1.000  O
  O16      1.0000 0.75085  0.25344  0.00293  Biso   1.000  O
  O17      1.0000 0.00678  0.73552  0.25490  Biso   1.000  O
  O18      1.0000 0.25375  0.00242  0.74891  Biso   1.000  O
  O19      1.0000 0.15398  0.85230  0.50209  Biso   1.000  O
  O20      1.0000 0.50172  0.14560  0.86129  Biso   1.000  O
  O21      1.0000 0.84481  0.50256  0.14933  Biso   1.000  O
  O22      1.0000 0.87185  0.17922  0.50716  Biso   1.000  O
  O23      1.0000 0.49881  0.84203  0.12691  Biso   1.000  O
  O24      1.0000 0.15450  0.50268  0.84834  Biso   1.000  O
  Si1      1.0000 0.11300  0.33951  0.88456  Biso   1.000  Si
  Si2      1.0000 0.33302  0.87471  0.10388  Biso   1.000  Si
  Si3      1.0000 0.66618  0.89315  0.11669  Biso   1.000  Si
  Si4      1.0000 0.89900  0.12987  0.67060  Biso   1.000  Si
  Si5      1.0000 0.11899  0.66712  0.89100  Biso   1.000  Si
  Si6      1.0000 0.89624  0.66706  0.12177  Biso   1.000  Si
  Si7      1.0000 0.12126  0.89649  0.66561  Biso   1.000  Si
  Si8      1.0000 0.67051  0.12115  0.89557  Biso   1.000  Si
  Si9      1.0000 0.33342  0.10553  0.88480  Biso   1.000  Si
  Si10     1.0000 0.11216  0.87130  0.33278  Biso   1.000  Si
  Si11     1.0000 0.88118  0.34035  0.10634  Biso   1.000  Si
  Al1      1.0000 0.87676  0.09602  0.32817  Biso   1.000  Al
  Fe1      1.0000 0.96576  0.36733  0.45059  Biso   1.000  Fe
  O25      1.0000 0.09429  0.50814  0.47057  Biso   1.000  O
  H1       1.0000 0.22088  0.52171  0.48172  Biso   1.000  H
  C1       1.0000 0.36231  0.51594  0.50023  Biso   1.000  C
  H2       1.0000 0.40700  0.62688  0.49961  Biso   1.000  H
  H3       1.0000 0.37736  0.46974  0.60285  Biso   1.000  H
  H4       1.0000 0.38041  0.44400  0.40710  Biso   1.000  H
