data_image0
_cell_length_a       9.33403
_cell_length_b       9.33413
_cell_length_c       9.33383
_cell_angle_alpha    94.5421
_cell_angle_beta     94.5397
_cell_angle_gamma    94.5446

_symmetry_space_group_name_H-M    "P 1"
_symmetry_int_tables_number       1

loop_
  _symmetry_equiv_pos_as_xyz
  'x, y, z'

loop_
  _atom_site_label
  _atom_site_occupancy
  _atom_site_fract_x
  _atom_site_fract_y
  _atom_site_fract_z
  _atom_site_thermal_displace_type
  _atom_site_B_iso_or_equiv
  _atom_site_type_symbol
  O1       1.0000 0.72366  0.40306  0.96474  Biso   1.000  O
  O2       1.0000 0.49808  0.15963  0.38759  Biso   1.000  O
  O3       1.0000 0.38131  0.42153  0.32371  Biso   1.000  O
  O4       1.0000 0.80276  0.18568  0.09762  Biso   1.000  O
  O5       1.0000 0.73039  0.03632  0.31452  Biso   1.000  O
  O6       1.0000 0.50376  0.49106  0.09553  Biso   1.000  O
  O7       1.0000 0.22640  0.90776  0.16398  Biso   1.000  O
  O8       1.0000 0.44441  0.14512  0.74221  Biso   1.000  O
  O9       1.0000 0.21929  0.27923  0.81043  Biso   1.000  O
  O10      1.0000 0.44203  0.82025  0.02506  Biso   1.000  O
  O11      1.0000 0.58029  0.87971  0.79449  Biso   1.000  O
  O12      1.0000 0.15148  0.12625  0.02794  Biso   1.000  O
  O13      1.0000 0.71917  0.90761  0.05546  Biso   1.000  O
  O14      1.0000 0.47374  0.42921  0.81377  Biso   1.000  O
  O15      1.0000 0.19371  0.15620  0.31384  Biso   1.000  O
  O16      1.0000 0.22481  0.40465  0.07223  Biso   1.000  O
  O17      1.0000 0.48103  0.87922  0.30790  Biso   1.000  O
  O18      1.0000 0.74701  0.15449  0.81226  Biso   1.000  O
  O19      1.0000 0.61623  0.97428  0.55428  Biso   1.000  O
  O20      1.0000 0.97771  0.31444  0.93046  Biso   1.000  O
  O21      1.0000 0.31383  0.65527  0.20275  Biso   1.000  O
  O22      1.0000 0.34725  0.33800  0.57068  Biso   1.000  O
  O23      1.0000 0.97000  0.99267  0.19011  Biso   1.000  O
  O24      1.0000 0.63684  0.65496  0.92338  Biso   1.000  O
  Si1      1.0000 0.58480  0.49128  0.94981  Biso   1.000  Si
  Si2      1.0000 0.80629  0.03225  0.16528  Biso   1.000  Si
  Si3      1.0000 0.13654  0.04842  0.17675  Biso   1.000  Si
  Si4      1.0000 0.36966  0.29184  0.73600  Biso   1.000  Si
  Si5      1.0000 0.59329  0.81713  0.95266  Biso   1.000  Si
  Si6      1.0000 0.36525  0.81841  0.17508  Biso   1.000  Si
  Al1      1.0000 0.59671  0.05619  0.73006  Biso   1.000  Al
  Si7      1.0000 0.14273  0.27940  0.95956  Biso   1.000  Si
  Si8      1.0000 0.81173  0.26140  0.94713  Biso   1.000  Si
  Si9      1.0000 0.58006  0.01755  0.38879  Biso   1.000  Si
  Si10     1.0000 0.35508  0.49233  0.17253  Biso   1.000  Si
  Al2      1.0000 0.34575  0.25167  0.39348  Biso   1.000  Al
  Te1      1.0000 0.48829  0.49919  0.51768  Biso   1.000  Te
  O25      1.0000 0.66518  0.60345  0.51460  Biso   1.000  O
  Te2      1.0000 0.61537  0.76999  0.60855  Biso   1.000  Te
  C1       1.0000 0.86495  0.57505  0.33495  Biso   1.000  C
  H1       1.0000 0.74880  0.59011  0.43896  Biso   1.000  H
  H2       1.0000 0.84384  0.65896  0.26380  Biso   1.000  H
  H3       1.0000 0.84059  0.46546  0.28631  Biso   1.000  H
  H4       1.0000 0.96305  0.59459  0.40713  Biso   1.000  H
