data_image0
_cell_length_a       9.33403
_cell_length_b       9.33413
_cell_length_c       9.33383
_cell_angle_alpha    94.5421
_cell_angle_beta     94.5397
_cell_angle_gamma    94.5446

_symmetry_space_group_name_H-M    "P 1"
_symmetry_int_tables_number       1

loop_
  _symmetry_equiv_pos_as_xyz
  'x, y, z'

loop_
  _atom_site_label
  _atom_site_occupancy
  _atom_site_fract_x
  _atom_site_fract_y
  _atom_site_fract_z
  _atom_site_thermal_displace_type
  _atom_site_B_iso_or_equiv
  _atom_site_type_symbol
  O1       1.0000 0.25642  0.25219  0.89976  Biso   1.000  O
  O2       1.0000 0.02884  0.00712  0.31443  Biso   1.000  O
  O3       1.0000 0.90411  0.26473  0.25527  Biso   1.000  O
  O4       1.0000 0.32371  0.02557  0.03003  Biso   1.000  O
  O5       1.0000 0.26043  0.87988  0.25260  Biso   1.000  O
  O6       1.0000 0.03104  0.33626  0.02856  Biso   1.000  O
  O7       1.0000 0.75605  0.75172  0.10897  Biso   1.000  O
  O8       1.0000 0.97356  0.97592  0.66256  Biso   1.000  O
  O9       1.0000 0.75109  0.11096  0.74553  Biso   1.000  O
  O10      1.0000 0.97175  0.66369  0.97046  Biso   1.000  O
  O11      1.0000 0.09680  0.75217  0.74911  Biso   1.000  O
  O12      1.0000 0.68394  0.96984  0.96792  Biso   1.000  O
  O13      1.0000 0.25069  0.74482  0.99495  Biso   1.000  O
  O14      1.0000 0.00619  0.25658  0.75136  Biso   1.000  O
  O15      1.0000 0.72100  0.00148  0.25298  Biso   1.000  O
  O16      1.0000 0.74986  0.25122  0.00029  Biso   1.000  O
  O17      1.0000 0.01020  0.72709  0.25481  Biso   1.000  O
  O18      1.0000 0.25273  0.00120  0.74713  Biso   1.000  O
  O19      1.0000 0.15537  0.84963  0.50066  Biso   1.000  O
  O20      1.0000 0.50182  0.14275  0.85483  Biso   1.000  O
  O21      1.0000 0.84428  0.49965  0.14636  Biso   1.000  O
  O22      1.0000 0.87396  0.17732  0.50587  Biso   1.000  O
  O23      1.0000 0.49881  0.83973  0.12659  Biso   1.000  O
  O24      1.0000 0.15406  0.50101  0.84860  Biso   1.000  O
  Si1      1.0000 0.11348  0.33751  0.88280  Biso   1.000  Si
  Si2      1.0000 0.33337  0.87327  0.10237  Biso   1.000  Si
  Si3      1.0000 0.66591  0.89198  0.11671  Biso   1.000  Si
  Si4      1.0000 0.89977  0.12620  0.66881  Biso   1.000  Si
  Si5      1.0000 0.11892  0.66548  0.88978  Biso   1.000  Si
  Si6      1.0000 0.89701  0.66456  0.12095  Biso   1.000  Si
  Si7      1.0000 0.12141  0.89352  0.66370  Biso   1.000  Si
  Si8      1.0000 0.67039  0.11819  0.89313  Biso   1.000  Si
  Si9      1.0000 0.33399  0.10355  0.88236  Biso   1.000  Si
  Si10     1.0000 0.11210  0.86643  0.33137  Biso   1.000  Si
  Si11     1.0000 0.88095  0.33713  0.10348  Biso   1.000  Si
  Al1      1.0000 0.87641  0.09399  0.32627  Biso   1.000  Al
  Fe1      1.0000 0.96672  0.37137  0.45284  Biso   1.000  Fe
  O25      1.0000 0.09751  0.51377  0.50277  Biso   1.000  O
  H1       1.0000 0.24294  0.51812  0.50375  Biso   1.000  H
  C1       1.0000 0.37321  0.52011  0.49669  Biso   1.000  C
  H2       1.0000 0.40474  0.62773  0.46639  Biso   1.000  H
  H3       1.0000 0.38608  0.43616  0.41073  Biso   1.000  H
  O26      1.0000 0.44612  0.50316  0.62839  Biso   1.000  O
  H4       1.0000 0.43348  0.40509  0.65327  Biso   1.000  H
