data_image0
_cell_length_a       9.33403
_cell_length_b       9.33413
_cell_length_c       9.33383
_cell_angle_alpha    94.5421
_cell_angle_beta     94.5397
_cell_angle_gamma    94.5446

_symmetry_space_group_name_H-M    "P 1"
_symmetry_int_tables_number       1

loop_
  _symmetry_equiv_pos_as_xyz
  'x, y, z'

loop_
  _atom_site_label
  _atom_site_occupancy
  _atom_site_fract_x
  _atom_site_fract_y
  _atom_site_fract_z
  _atom_site_thermal_displace_type
  _atom_site_B_iso_or_equiv
  _atom_site_type_symbol
  O1       1.0000 0.25992  0.25415  0.90595  Biso   1.000  O
  O2       1.0000 0.01859  0.00443  0.29894  Biso   1.000  O
  O3       1.0000 0.89125  0.26746  0.25744  Biso   1.000  O
  O4       1.0000 0.32943  0.01562  0.02040  Biso   1.000  O
  O5       1.0000 0.26691  0.88954  0.25038  Biso   1.000  O
  O6       1.0000 0.03870  0.34285  0.04209  Biso   1.000  O
  O7       1.0000 0.76928  0.76582  0.12084  Biso   1.000  O
  O8       1.0000 0.97725  0.96796  0.67348  Biso   1.000  O
  O9       1.0000 0.74491  0.09390  0.74450  Biso   1.000  O
  O10      1.0000 0.97419  0.67777  0.96233  Biso   1.000  O
  O11      1.0000 0.12118  0.74722  0.74048  Biso   1.000  O
  O12      1.0000 0.67488  0.96829  0.97102  Biso   1.000  O
  O13      1.0000 0.25736  0.73179  0.99806  Biso   1.000  O
  O14      1.0000 0.99907  0.24620  0.76536  Biso   1.000  O
  O15      1.0000 0.70882  0.01004  0.25902  Biso   1.000  O
  O16      1.0000 0.75623  0.25268  0.99396  Biso   1.000  O
  O17      1.0000 0.02733  0.72166  0.24807  Biso   1.000  O
  O18      1.0000 0.26138  0.00897  0.73741  Biso   1.000  O
  O19      1.0000 0.15603  0.85482  0.49442  Biso   1.000  O
  O20      1.0000 0.50489  0.15339  0.85498  Biso   1.000  O
  O21      1.0000 0.84179  0.50508  0.13560  Biso   1.000  O
  O22      1.0000 0.86349  0.15801  0.51177  Biso   1.000  O
  O23      1.0000 0.50132  0.82588  0.13180  Biso   1.000  O
  O24      1.0000 0.14650  0.49525  0.84009  Biso   1.000  O
  Si1      1.0000 0.11252  0.33378  0.88995  Biso   1.000  Si
  Si2      1.0000 0.33895  0.86715  0.09996  Biso   1.000  Si
  Si3      1.0000 0.66503  0.89544  0.12411  Biso   1.000  Si
  Si4      1.0000 0.89626  0.11459  0.67627  Biso   1.000  Si
  Si5      1.0000 0.12404  0.66342  0.88599  Biso   1.000  Si
  Si6      1.0000 0.90237  0.66904  0.11537  Biso   1.000  Si
  Si7      1.0000 0.13020  0.89634  0.66128  Biso   1.000  Si
  Si8      1.0000 0.66986  0.11771  0.89424  Biso   1.000  Si
  Si9      1.0000 0.33879  0.10695  0.87927  Biso   1.000  Si
  Si10     1.0000 0.11560  0.87474  0.32443  Biso   1.000  Si
  Si11     1.0000 0.88035  0.33951  0.10588  Biso   1.000  Si
  Al1      1.0000 0.86979  0.09741  0.32668  Biso   1.000  Al
  Fe1      1.0000 0.92478  0.36170  0.47774  Biso   1.000  Fe
  O25      1.0000 0.02125  0.54939  0.44608  Biso   1.000  O
  H1       1.0000 0.10389  0.54555  0.51943  Biso   1.000  H
  C1       1.0000 0.49863  0.56437  0.54890  Biso   1.000  C
  H2       1.0000 0.46878  0.66570  0.51563  Biso   1.000  H
  H3       1.0000 0.44821  0.53165  0.64053  Biso   1.000  H
  H4       1.0000 0.49504  0.48096  0.46265  Biso   1.000  H
  H5       1.0000 0.05451  0.59967  0.36237  Biso   1.000  H
