data_image0
_cell_length_a       9.33403
_cell_length_b       9.33413
_cell_length_c       9.33383
_cell_angle_alpha    94.5421
_cell_angle_beta     94.5397
_cell_angle_gamma    94.5446

_symmetry_space_group_name_H-M    "P 1"
_symmetry_int_tables_number       1

loop_
  _symmetry_equiv_pos_as_xyz
  'x, y, z'

loop_
  _atom_site_label
  _atom_site_occupancy
  _atom_site_fract_x
  _atom_site_fract_y
  _atom_site_fract_z
  _atom_site_thermal_displace_type
  _atom_site_B_iso_or_equiv
  _atom_site_type_symbol
  O1       1.0000 0.72101  0.39975  0.95605  Biso   1.000  O
  O2       1.0000 0.49042  0.15939  0.38266  Biso   1.000  O
  O3       1.0000 0.38462  0.42730  0.33109  Biso   1.000  O
  O4       1.0000 0.81198  0.18994  0.09779  Biso   1.000  O
  O5       1.0000 0.73572  0.05070  0.31876  Biso   1.000  O
  O6       1.0000 0.50608  0.48856  0.09663  Biso   1.000  O
  O7       1.0000 0.23074  0.91333  0.17197  Biso   1.000  O
  O8       1.0000 0.45049  0.14677  0.75036  Biso   1.000  O
  O9       1.0000 0.21850  0.27524  0.81309  Biso   1.000  O
  O10      1.0000 0.43385  0.81787  0.01535  Biso   1.000  O
  O11      1.0000 0.57916  0.87798  0.79090  Biso   1.000  O
  O12      1.0000 0.13850  0.12180  0.02568  Biso   1.000  O
  O13      1.0000 0.71047  0.91547  0.05662  Biso   1.000  O
  O14      1.0000 0.47082  0.43657  0.80865  Biso   1.000  O
  O15      1.0000 0.18314  0.16275  0.31395  Biso   1.000  O
  O16      1.0000 0.22762  0.39900  0.07902  Biso   1.000  O
  O17      1.0000 0.49326  0.87837  0.29790  Biso   1.000  O
  O18      1.0000 0.75659  0.14954  0.80940  Biso   1.000  O
  O19      1.0000 0.61564  0.97743  0.55037  Biso   1.000  O
  O20      1.0000 0.98004  0.32611  0.92730  Biso   1.000  O
  O21      1.0000 0.31304  0.65635  0.20267  Biso   1.000  O
  O22      1.0000 0.33995  0.33339  0.57407  Biso   1.000  O
  O23      1.0000 0.96662  0.98082  0.19140  Biso   1.000  O
  O24      1.0000 0.64204  0.65710  0.92625  Biso   1.000  O
  Si1      1.0000 0.58499  0.49274  0.94852  Biso   1.000  Si
  Si2      1.0000 0.80692  0.03538  0.16639  Biso   1.000  Si
  Si3      1.0000 0.13125  0.04786  0.17910  Biso   1.000  Si
  Si4      1.0000 0.36872  0.28935  0.73939  Biso   1.000  Si
  Si5      1.0000 0.59059  0.81841  0.95073  Biso   1.000  Si
  Si6      1.0000 0.36684  0.81936  0.17240  Biso   1.000  Si
  Al1      1.0000 0.60142  0.05537  0.72823  Biso   1.000  Al
  Si7      1.0000 0.14094  0.27915  0.96224  Biso   1.000  Si
  Si8      1.0000 0.81594  0.26199  0.94338  Biso   1.000  Si
  Si9      1.0000 0.58112  0.02206  0.38560  Biso   1.000  Si
  Si10     1.0000 0.35727  0.49271  0.17692  Biso   1.000  Si
  Al2      1.0000 0.33947  0.25493  0.39319  Biso   1.000  Al
  Te1      1.0000 0.48975  0.50421  0.54531  Biso   1.000  Te
  O25      1.0000 0.67695  0.59056  0.52642  Biso   1.000  O
  Te2      1.0000 0.62343  0.76413  0.60629  Biso   1.000  Te
  C1       1.0000 0.86306  0.57138  0.32610  Biso   1.000  C
  H1       1.0000 0.74827  0.58168  0.44061  Biso   1.000  H
  H2       1.0000 0.83725  0.65383  0.25461  Biso   1.000  H
  H3       1.0000 0.83750  0.45997  0.28307  Biso   1.000  H
  H4       1.0000 0.96115  0.59465  0.39765  Biso   1.000  H
