data_image0
_cell_length_a       9.33403
_cell_length_b       9.33413
_cell_length_c       9.33383
_cell_angle_alpha    94.5421
_cell_angle_beta     94.5397
_cell_angle_gamma    94.5446

_symmetry_space_group_name_H-M    "P 1"
_symmetry_int_tables_number       1

loop_
  _symmetry_equiv_pos_as_xyz
  'x, y, z'

loop_
  _atom_site_label
  _atom_site_occupancy
  _atom_site_fract_x
  _atom_site_fract_y
  _atom_site_fract_z
  _atom_site_thermal_displace_type
  _atom_site_B_iso_or_equiv
  _atom_site_type_symbol
  O1       1.0000 0.72184  0.40046  0.96337  Biso   1.000  O
  O2       1.0000 0.49114  0.16062  0.38281  Biso   1.000  O
  O3       1.0000 0.38316  0.42794  0.33289  Biso   1.000  O
  O4       1.0000 0.81618  0.18848  0.09945  Biso   1.000  O
  O5       1.0000 0.73736  0.05192  0.32090  Biso   1.000  O
  O6       1.0000 0.50892  0.49399  0.10280  Biso   1.000  O
  O7       1.0000 0.23220  0.91475  0.17336  Biso   1.000  O
  O8       1.0000 0.44986  0.14540  0.75178  Biso   1.000  O
  O9       1.0000 0.21751  0.27327  0.81349  Biso   1.000  O
  O10      1.0000 0.43623  0.81897  0.01775  Biso   1.000  O
  O11      1.0000 0.58333  0.88037  0.79437  Biso   1.000  O
  O12      1.0000 0.13732  0.12401  0.02874  Biso   1.000  O
  O13      1.0000 0.71357  0.91335  0.06054  Biso   1.000  O
  O14      1.0000 0.47054  0.43414  0.81552  Biso   1.000  O
  O15      1.0000 0.18372  0.16312  0.31711  Biso   1.000  O
  O16      1.0000 0.23102  0.40090  0.07791  Biso   1.000  O
  O17      1.0000 0.49443  0.87985  0.30041  Biso   1.000  O
  O18      1.0000 0.75713  0.15295  0.81166  Biso   1.000  O
  O19      1.0000 0.61834  0.98077  0.55256  Biso   1.000  O
  O20      1.0000 0.98100  0.32931  0.93010  Biso   1.000  O
  O21      1.0000 0.31247  0.65847  0.20516  Biso   1.000  O
  O22      1.0000 0.34213  0.33382  0.57696  Biso   1.000  O
  O23      1.0000 0.96878  0.97940  0.19679  Biso   1.000  O
  O24      1.0000 0.64266  0.65678  0.92707  Biso   1.000  O
  Si1      1.0000 0.58555  0.49316  0.95288  Biso   1.000  Si
  Si2      1.0000 0.80914  0.03476  0.16906  Biso   1.000  Si
  Si3      1.0000 0.13248  0.04929  0.18157  Biso   1.000  Si
  Si4      1.0000 0.36905  0.28886  0.74190  Biso   1.000  Si
  Si5      1.0000 0.59300  0.81875  0.95277  Biso   1.000  Si
  Si6      1.0000 0.36873  0.82081  0.17434  Biso   1.000  Si
  Al1      1.0000 0.60278  0.05701  0.73087  Biso   1.000  Al
  Si7      1.0000 0.14159  0.28082  0.96344  Biso   1.000  Si
  Si8      1.0000 0.81745  0.26364  0.94647  Biso   1.000  Si
  Si9      1.0000 0.58246  0.02394  0.38752  Biso   1.000  Si
  Si10     1.0000 0.35768  0.49499  0.17932  Biso   1.000  Si
  Al2      1.0000 0.33990  0.25561  0.39614  Biso   1.000  Al
  Fe1      1.0000 0.49086  0.50283  0.54198  Biso   1.000  Fe
  O25      1.0000 0.67424  0.59431  0.52103  Biso   1.000  O
  Fe2      1.0000 0.62922  0.76865  0.60681  Biso   1.000  Fe
  C1       1.0000 0.85302  0.56224  0.31913  Biso   1.000  C
  H1       1.0000 0.75242  0.58261  0.43535  Biso   1.000  H
  H2       1.0000 0.80871  0.62451  0.23472  Biso   1.000  H
  H3       1.0000 0.83505  0.44542  0.29960  Biso   1.000  H
  O26      1.0000 0.99513  0.60332  0.36842  Biso   1.000  O
  H4       1.0000 0.01976  0.70267  0.34982  Biso   1.000  H
