data_image0
_cell_length_a       9.33403
_cell_length_b       9.33413
_cell_length_c       9.33383
_cell_angle_alpha    94.5421
_cell_angle_beta     94.5397
_cell_angle_gamma    94.5446

_symmetry_space_group_name_H-M    "P 1"
_symmetry_int_tables_number       1

loop_
  _symmetry_equiv_pos_as_xyz
  'x, y, z'

loop_
  _atom_site_label
  _atom_site_occupancy
  _atom_site_fract_x
  _atom_site_fract_y
  _atom_site_fract_z
  _atom_site_thermal_displace_type
  _atom_site_B_iso_or_equiv
  _atom_site_type_symbol
  O1       1.0000 0.26182  0.25734  0.90964  Biso   1.000  O
  O2       1.0000 0.01985  0.00816  0.29953  Biso   1.000  O
  O3       1.0000 0.88063  0.26309  0.25362  Biso   1.000  O
  O4       1.0000 0.32730  0.01561  0.01918  Biso   1.000  O
  O5       1.0000 0.26601  0.88870  0.25191  Biso   1.000  O
  O6       1.0000 0.03765  0.34363  0.04429  Biso   1.000  O
  O7       1.0000 0.76676  0.76453  0.11554  Biso   1.000  O
  O8       1.0000 0.97378  0.96766  0.67018  Biso   1.000  O
  O9       1.0000 0.74493  0.09482  0.74245  Biso   1.000  O
  O10      1.0000 0.97369  0.67643  0.96514  Biso   1.000  O
  O11      1.0000 0.11898  0.75087  0.74438  Biso   1.000  O
  O12      1.0000 0.67879  0.97970  0.97968  Biso   1.000  O
  O13      1.0000 0.25632  0.73051  0.99984  Biso   1.000  O
  O14      1.0000 0.00257  0.24215  0.77113  Biso   1.000  O
  O15      1.0000 0.70907  0.99936  0.27031  Biso   1.000  O
  O16      1.0000 0.75494  0.26280  0.98486  Biso   1.000  O
  O17      1.0000 0.02354  0.72272  0.25510  Biso   1.000  O
  O18      1.0000 0.25831  0.01215  0.73677  Biso   1.000  O
  O19      1.0000 0.15652  0.85533  0.49561  Biso   1.000  O
  O20      1.0000 0.50417  0.15160  0.85269  Biso   1.000  O
  O21      1.0000 0.83988  0.50577  0.13918  Biso   1.000  O
  O22      1.0000 0.86868  0.16867  0.51222  Biso   1.000  O
  O23      1.0000 0.50087  0.82702  0.12946  Biso   1.000  O
  O24      1.0000 0.14686  0.49597  0.84148  Biso   1.000  O
  Si1      1.0000 0.11213  0.33429  0.89283  Biso   1.000  Si
  Si2      1.0000 0.33769  0.86797  0.10011  Biso   1.000  Si
  Si3      1.0000 0.66553  0.89674  0.12636  Biso   1.000  Si
  Si4      1.0000 0.89757  0.11902  0.67387  Biso   1.000  Si
  Si5      1.0000 0.12251  0.66388  0.88760  Biso   1.000  Si
  Si6      1.0000 0.90143  0.66898  0.11877  Biso   1.000  Si
  Si7      1.0000 0.12717  0.89783  0.66206  Biso   1.000  Si
  Si8      1.0000 0.67121  0.12207  0.89210  Biso   1.000  Si
  Si9      1.0000 0.33785  0.10817  0.87914  Biso   1.000  Si
  Si10     1.0000 0.11382  0.87702  0.32560  Biso   1.000  Si
  Si11     1.0000 0.87762  0.34033  0.10587  Biso   1.000  Si
  Al1      1.0000 0.86845  0.09831  0.33067  Biso   1.000  Al
  Fe1      1.0000 0.94763  0.37364  0.46979  Biso   1.000  Fe
  O25      1.0000 0.08847  0.53930  0.46494  Biso   1.000  O
  H1       1.0000 0.18521  0.53238  0.50219  Biso   1.000  H
  C1       1.0000 0.43819  0.55837  0.53529  Biso   1.000  C
  H2       1.0000 0.43455  0.66926  0.50416  Biso   1.000  H
  H3       1.0000 0.40741  0.52093  0.63849  Biso   1.000  H
  H4       1.0000 0.08496  0.60386  0.38533  Biso   1.000  H
  O26      1.0000 0.46297  0.44851  0.43550  Biso   1.000  O
  H5       1.0000 0.47973  0.48729  0.34394  Biso   1.000  H
