data_image0
_cell_length_a       9.46362
_cell_length_b       9.46352
_cell_length_c       9.4638
_cell_angle_alpha    94.5227
_cell_angle_beta     94.5193
_cell_angle_gamma    94.5229

_symmetry_space_group_name_H-M    "P 1"
_symmetry_int_tables_number       1

loop_
  _symmetry_equiv_pos_as_xyz
  'x, y, z'

loop_
  _atom_site_label
  _atom_site_occupancy
  _atom_site_fract_x
  _atom_site_fract_y
  _atom_site_fract_z
  _atom_site_thermal_displace_type
  _atom_site_B_iso_or_equiv
  _atom_site_type_symbol
  P1       1.0000 0.11247  0.32623  0.87623  Biso   1.000  P
  Si1      1.0000 0.87691  0.10565  0.32642  Biso   1.000  Si
  P2       1.0000 0.33416  0.86476  0.10095  Biso   1.000  P
  Al1      1.0000 0.66486  0.89557  0.11863  Biso   1.000  Al
  Al2      1.0000 0.89921  0.11271  0.66390  Biso   1.000  Al
  Al3      1.0000 0.12351  0.65798  0.88740  Biso   1.000  Al
  P3       1.0000 0.89052  0.66391  0.10839  Biso   1.000  P
  P4       1.0000 0.12365  0.88239  0.65337  Biso   1.000  P
  P5       1.0000 0.66510  0.11481  0.88194  Biso   1.000  P
  Al4      1.0000 0.33348  0.09215  0.86718  Biso   1.000  Al
  Al5      1.0000 0.10278  0.87341  0.32119  Biso   1.000  Al
  Al6      1.0000 0.87606  0.33261  0.09268  Biso   1.000  Al
  O1       1.0000 0.24757  0.24872  0.89218  Biso   1.000  O
  O2       1.0000 0.02060  0.02950  0.31242  Biso   1.000  O
  O3       1.0000 0.88627  0.26556  0.26132  Biso   1.000  O
  O4       1.0000 0.32425  0.99887  0.01917  Biso   1.000  O
  O5       1.0000 0.26161  0.88670  0.23828  Biso   1.000  O
  O6       1.0000 0.03854  0.32346  0.01510  Biso   1.000  O
  O7       1.0000 0.75841  0.74460  0.09451  Biso   1.000  O
  O8       1.0000 0.98345  0.95433  0.66351  Biso   1.000  O
  O9       1.0000 0.74035  0.09651  0.74517  Biso   1.000  O
  O10      1.0000 0.96266  0.66710  0.96748  Biso   1.000  O
  O11      1.0000 0.11522  0.74856  0.73418  Biso   1.000  O
  O12      1.0000 0.67052  0.97858  0.95785  Biso   1.000  O
  O13      1.0000 0.26265  0.73413  0.00791  Biso   1.000  O
  O14      1.0000 0.01141  0.25517  0.75171  Biso   1.000  O
  O15      1.0000 0.73695  0.01160  0.25938  Biso   1.000  O
  O16      1.0000 0.73755  0.24350  0.97763  Biso   1.000  O
  O17      1.0000 0.99448  0.72582  0.23437  Biso   1.000  O
  O18      1.0000 0.24924  0.98710  0.71812  Biso   1.000  O
  O19      1.0000 0.14559  0.83864  0.49878  Biso   1.000  O
  O20      1.0000 0.51061  0.14441  0.84101  Biso   1.000  O
  O21      1.0000 0.84249  0.50939  0.13153  Biso   1.000  O
  O22      1.0000 0.86049  0.16756  0.49313  Biso   1.000  O
  O23      1.0000 0.48839  0.83811  0.13854  Biso   1.000  O
  O24      1.0000 0.15328  0.47971  0.84415  Biso   1.000  O
  Fe1      1.0000 0.84372  0.37881  0.44650  Biso   1.000  Fe
  O25      1.0000 0.79800  0.54111  0.51640  Biso   1.000  O
  C1       1.0000 0.63545  0.56727  0.71751  Biso   1.000  C
  H1       1.0000 0.69701  0.63694  0.80102  Biso   1.000  H
  H2       1.0000 0.61424  0.45712  0.74333  Biso   1.000  H
  H3       1.0000 0.71940  0.55712  0.61685  Biso   1.000  H
  O26      1.0000 0.51559  0.63200  0.67083  Biso   1.000  O
  H4       1.0000 0.45152  0.56437  0.60951  Biso   1.000  H
