data_image0
_cell_length_a       9.46362
_cell_length_b       9.46352
_cell_length_c       9.4638
_cell_angle_alpha    94.5227
_cell_angle_beta     94.5193
_cell_angle_gamma    94.5229

_symmetry_space_group_name_H-M    "P 1"
_symmetry_int_tables_number       1

loop_
  _symmetry_equiv_pos_as_xyz
  'x, y, z'

loop_
  _atom_site_label
  _atom_site_occupancy
  _atom_site_fract_x
  _atom_site_fract_y
  _atom_site_fract_z
  _atom_site_thermal_displace_type
  _atom_site_B_iso_or_equiv
  _atom_site_type_symbol
  P1       1.0000 0.11132  0.32865  0.87757  Biso   1.000  P
  Si1      1.0000 0.87512  0.10801  0.32768  Biso   1.000  Si
  P2       1.0000 0.33246  0.86726  0.10228  Biso   1.000  P
  Al1      1.0000 0.66311  0.89785  0.12037  Biso   1.000  Al
  Al2      1.0000 0.89878  0.11540  0.66570  Biso   1.000  Al
  Al3      1.0000 0.12107  0.66072  0.88925  Biso   1.000  Al
  P3       1.0000 0.88956  0.66587  0.11090  Biso   1.000  P
  P4       1.0000 0.12293  0.88475  0.65550  Biso   1.000  P
  P5       1.0000 0.66402  0.11549  0.88343  Biso   1.000  P
  Al4      1.0000 0.33242  0.09495  0.86896  Biso   1.000  Al
  Al5      1.0000 0.10132  0.87428  0.32303  Biso   1.000  Al
  Al6      1.0000 0.87504  0.33410  0.09393  Biso   1.000  Al
  O1       1.0000 0.24661  0.25137  0.89315  Biso   1.000  O
  O2       1.0000 0.01695  0.02914  0.31290  Biso   1.000  O
  O3       1.0000 0.88754  0.26825  0.26339  Biso   1.000  O
  O4       1.0000 0.32350  0.00181  0.02127  Biso   1.000  O
  O5       1.0000 0.25975  0.88881  0.23959  Biso   1.000  O
  O6       1.0000 0.03684  0.32360  0.01629  Biso   1.000  O
  O7       1.0000 0.75743  0.74727  0.10025  Biso   1.000  O
  O8       1.0000 0.98305  0.95741  0.66557  Biso   1.000  O
  O9       1.0000 0.73999  0.09835  0.74701  Biso   1.000  O
  O10      1.0000 0.96080  0.67173  0.97022  Biso   1.000  O
  O11      1.0000 0.11391  0.75115  0.73600  Biso   1.000  O
  O12      1.0000 0.66907  0.97804  0.95794  Biso   1.000  O
  O13      1.0000 0.26144  0.73708  0.00883  Biso   1.000  O
  O14      1.0000 0.01051  0.25816  0.75225  Biso   1.000  O
  O15      1.0000 0.73354  0.01668  0.26008  Biso   1.000  O
  O16      1.0000 0.73629  0.24295  0.98103  Biso   1.000  O
  O17      1.0000 0.99391  0.72556  0.23754  Biso   1.000  O
  O18      1.0000 0.24909  0.98878  0.72022  Biso   1.000  O
  O19      1.0000 0.14491  0.84125  0.50070  Biso   1.000  O
  O20      1.0000 0.50993  0.14508  0.84231  Biso   1.000  O
  O21      1.0000 0.84123  0.51083  0.13205  Biso   1.000  O
  O22      1.0000 0.85989  0.17002  0.49465  Biso   1.000  O
  O23      1.0000 0.48690  0.84024  0.14043  Biso   1.000  O
  O24      1.0000 0.15083  0.48253  0.84755  Biso   1.000  O
  Fe1      1.0000 0.85381  0.38288  0.44956  Biso   1.000  Fe
  O25      1.0000 0.82116  0.54774  0.53047  Biso   1.000  O
  C1       1.0000 0.63418  0.55377  0.70688  Biso   1.000  C
  H1       1.0000 0.68290  0.62423  0.79675  Biso   1.000  H
  H2       1.0000 0.61452  0.44281  0.72768  Biso   1.000  H
  H3       1.0000 0.73716  0.55490  0.61542  Biso   1.000  H
  H4       1.0000 0.54833  0.59566  0.64411  Biso   1.000  H
