data_image0
_cell_length_a       9.33403
_cell_length_b       9.33413
_cell_length_c       9.33383
_cell_angle_alpha    94.5421
_cell_angle_beta     94.5397
_cell_angle_gamma    94.5446

_symmetry_space_group_name_H-M    "P 1"
_symmetry_int_tables_number       1

loop_
  _symmetry_equiv_pos_as_xyz
  'x, y, z'

loop_
  _atom_site_label
  _atom_site_occupancy
  _atom_site_fract_x
  _atom_site_fract_y
  _atom_site_fract_z
  _atom_site_thermal_displace_type
  _atom_site_B_iso_or_equiv
  _atom_site_type_symbol
  O1       1.0000 0.73715  0.40210  0.95968  Biso   1.000  O
  O2       1.0000 0.50369  0.15336  0.38444  Biso   1.000  O
  O3       1.0000 0.38725  0.41513  0.32297  Biso   1.000  O
  O4       1.0000 0.81323  0.18503  0.09728  Biso   1.000  O
  O5       1.0000 0.74480  0.04053  0.31906  Biso   1.000  O
  O6       1.0000 0.52197  0.48861  0.10005  Biso   1.000  O
  O7       1.0000 0.24073  0.90756  0.17263  Biso   1.000  O
  O8       1.0000 0.46319  0.14870  0.74512  Biso   1.000  O
  O9       1.0000 0.22999  0.27177  0.80830  Biso   1.000  O
  O10      1.0000 0.44721  0.81399  0.02360  Biso   1.000  O
  O11      1.0000 0.59007  0.88119  0.79955  Biso   1.000  O
  O12      1.0000 0.16101  0.12317  0.02978  Biso   1.000  O
  O13      1.0000 0.72180  0.90857  0.06148  Biso   1.000  O
  O14      1.0000 0.48105  0.43175  0.81718  Biso   1.000  O
  O15      1.0000 0.19727  0.15478  0.31557  Biso   1.000  O
  O16      1.0000 0.24476  0.40218  0.06619  Biso   1.000  O
  O17      1.0000 0.49944  0.87503  0.30535  Biso   1.000  O
  O18      1.0000 0.76286  0.15221  0.81165  Biso   1.000  O
  O19      1.0000 0.62474  0.97245  0.55532  Biso   1.000  O
  O20      1.0000 0.99256  0.31419  0.93317  Biso   1.000  O
  O21      1.0000 0.32876  0.65180  0.20794  Biso   1.000  O
  O22      1.0000 0.35750  0.33463  0.57111  Biso   1.000  O
  O23      1.0000 0.97790  0.98668  0.18693  Biso   1.000  O
  O24      1.0000 0.65024  0.65508  0.92713  Biso   1.000  O
  Si1      1.0000 0.59806  0.49071  0.95077  Biso   1.000  Si
  Si2      1.0000 0.81540  0.03217  0.16684  Biso   1.000  Si
  Si3      1.0000 0.14485  0.04477  0.17842  Biso   1.000  Si
  Si4      1.0000 0.38246  0.29096  0.73825  Biso   1.000  Si
  Si5      1.0000 0.60104  0.81575  0.95510  Biso   1.000  Si
  Si6      1.0000 0.37793  0.81537  0.17760  Biso   1.000  Si
  Al1      1.0000 0.61138  0.05416  0.73124  Biso   1.000  Al
  Si7      1.0000 0.15637  0.27564  0.95940  Biso   1.000  Si
  Si8      1.0000 0.82556  0.26004  0.94647  Biso   1.000  Si
  Si9      1.0000 0.59245  0.01527  0.39006  Biso   1.000  Si
  Si10     1.0000 0.37020  0.48921  0.17245  Biso   1.000  Si
  Al2      1.0000 0.35280  0.24560  0.39305  Biso   1.000  Al
  Ni1      1.0000 0.47523  0.50348  0.51737  Biso   1.000  Ni
  O25      1.0000 0.65112  0.59841  0.52458  Biso   1.000  O
  Ni2      1.0000 0.62397  0.76926  0.61733  Biso   1.000  Ni
  C1       1.0000 0.85045  0.56466  0.35733  Biso   1.000  C
  H1       1.0000 0.73745  0.57644  0.44561  Biso   1.000  H
  H2       1.0000 0.83311  0.64599  0.28193  Biso   1.000  H
  H3       1.0000 0.83756  0.45345  0.31119  Biso   1.000  H
  H4       1.0000 0.94140  0.59173  0.43732  Biso   1.000  H
