data_image0
_cell_length_a       9.33403
_cell_length_b       9.33413
_cell_length_c       9.33383
_cell_angle_alpha    94.5421
_cell_angle_beta     94.5397
_cell_angle_gamma    94.5446

_symmetry_space_group_name_H-M    "P 1"
_symmetry_int_tables_number       1

loop_
  _symmetry_equiv_pos_as_xyz
  'x, y, z'

loop_
  _atom_site_label
  _atom_site_occupancy
  _atom_site_fract_x
  _atom_site_fract_y
  _atom_site_fract_z
  _atom_site_thermal_displace_type
  _atom_site_B_iso_or_equiv
  _atom_site_type_symbol
  O1       1.0000 0.72454  0.40207  0.96645  Biso   1.000  O
  O2       1.0000 0.50131  0.15671  0.38361  Biso   1.000  O
  O3       1.0000 0.38359  0.41926  0.32254  Biso   1.000  O
  O4       1.0000 0.80991  0.18543  0.09785  Biso   1.000  O
  O5       1.0000 0.74256  0.04185  0.32035  Biso   1.000  O
  O6       1.0000 0.50714  0.49669  0.09653  Biso   1.000  O
  O7       1.0000 0.23757  0.91172  0.17096  Biso   1.000  O
  O8       1.0000 0.45133  0.14961  0.74315  Biso   1.000  O
  O9       1.0000 0.22208  0.27845  0.80906  Biso   1.000  O
  O10      1.0000 0.44407  0.81459  0.02495  Biso   1.000  O
  O11      1.0000 0.58544  0.88542  0.80119  Biso   1.000  O
  O12      1.0000 0.15516  0.12714  0.02873  Biso   1.000  O
  O13      1.0000 0.72018  0.90812  0.06260  Biso   1.000  O
  O14      1.0000 0.47393  0.43392  0.81553  Biso   1.000  O
  O15      1.0000 0.19507  0.15754  0.31515  Biso   1.000  O
  O16      1.0000 0.23056  0.40668  0.06977  Biso   1.000  O
  O17      1.0000 0.49686  0.87742  0.30514  Biso   1.000  O
  O18      1.0000 0.75213  0.15654  0.81257  Biso   1.000  O
  O19      1.0000 0.62040  0.97609  0.55620  Biso   1.000  O
  O20      1.0000 0.98222  0.31687  0.93174  Biso   1.000  O
  O21      1.0000 0.31780  0.65680  0.21079  Biso   1.000  O
  O22      1.0000 0.35272  0.33897  0.56963  Biso   1.000  O
  O23      1.0000 0.97554  0.98803  0.18888  Biso   1.000  O
  O24      1.0000 0.64494  0.65650  0.92499  Biso   1.000  O
  Si1      1.0000 0.58798  0.49383  0.95018  Biso   1.000  Si
  Si2      1.0000 0.81240  0.03306  0.16753  Biso   1.000  Si
  Si3      1.0000 0.14182  0.04889  0.17766  Biso   1.000  Si
  Si4      1.0000 0.37401  0.29426  0.73666  Biso   1.000  Si
  Si5      1.0000 0.59756  0.81780  0.95544  Biso   1.000  Si
  Si6      1.0000 0.37398  0.81813  0.17838  Biso   1.000  Si
  Al1      1.0000 0.60181  0.05773  0.73097  Biso   1.000  Al
  Si7      1.0000 0.14677  0.28030  0.95918  Biso   1.000  Si
  Si8      1.0000 0.81611  0.26262  0.94776  Biso   1.000  Si
  Si9      1.0000 0.58921  0.01800  0.39050  Biso   1.000  Si
  Si10     1.0000 0.35823  0.49400  0.17367  Biso   1.000  Si
  Al2      1.0000 0.35029  0.24981  0.39256  Biso   1.000  Al
  Ni1      1.0000 0.47715  0.50763  0.51699  Biso   1.000  Ni
  O25      1.0000 0.65081  0.60587  0.52287  Biso   1.000  O
  Ni2      1.0000 0.62097  0.77228  0.61916  Biso   1.000  Ni
  C1       1.0000 0.83219  0.57040  0.33415  Biso   1.000  C
  H1       1.0000 0.74648  0.58845  0.43506  Biso   1.000  H
  H2       1.0000 0.78124  0.62501  0.24711  Biso   1.000  H
  H3       1.0000 0.82284  0.45302  0.31367  Biso   1.000  H
  O26      1.0000 0.97097  0.62349  0.37868  Biso   1.000  O
  H4       1.0000 0.98950  0.72032  0.35157  Biso   1.000  H
