data_image0
_cell_length_a       9.33403
_cell_length_b       9.33413
_cell_length_c       9.33383
_cell_angle_alpha    94.5421
_cell_angle_beta     94.5397
_cell_angle_gamma    94.5446

_symmetry_space_group_name_H-M    "P 1"
_symmetry_int_tables_number       1

loop_
  _symmetry_equiv_pos_as_xyz
  'x, y, z'

loop_
  _atom_site_label
  _atom_site_occupancy
  _atom_site_fract_x
  _atom_site_fract_y
  _atom_site_fract_z
  _atom_site_thermal_displace_type
  _atom_site_B_iso_or_equiv
  _atom_site_type_symbol
  O1       1.0000 0.26090  0.25646  0.90377  Biso   1.000  O
  O2       1.0000 0.01667  0.00446  0.30014  Biso   1.000  O
  O3       1.0000 0.90061  0.27216  0.26196  Biso   1.000  O
  O4       1.0000 0.32994  0.01943  0.02146  Biso   1.000  O
  O5       1.0000 0.26491  0.89286  0.25274  Biso   1.000  O
  O6       1.0000 0.03791  0.33988  0.03749  Biso   1.000  O
  O7       1.0000 0.76780  0.76471  0.12215  Biso   1.000  O
  O8       1.0000 0.97734  0.97408  0.67375  Biso   1.000  O
  O9       1.0000 0.74875  0.10279  0.74494  Biso   1.000  O
  O10      1.0000 0.97265  0.67779  0.96549  Biso   1.000  O
  O11      1.0000 0.11564  0.75246  0.74409  Biso   1.000  O
  O12      1.0000 0.67593  0.96795  0.96921  Biso   1.000  O
  O13      1.0000 0.25469  0.73629  0.00023  Biso   1.000  O
  O14      1.0000 0.00490  0.25606  0.75770  Biso   1.000  O
  O15      1.0000 0.70829  0.01236  0.25758  Biso   1.000  O
  O16      1.0000 0.75662  0.25064  0.00048  Biso   1.000  O
  O17      1.0000 0.02504  0.72002  0.25521  Biso   1.000  O
  O18      1.0000 0.26255  0.00990  0.73777  Biso   1.000  O
  O19      1.0000 0.15463  0.85707  0.49617  Biso   1.000  O
  O20      1.0000 0.50668  0.15423  0.85528  Biso   1.000  O
  O21      1.0000 0.84303  0.50477  0.13758  Biso   1.000  O
  O22      1.0000 0.87260  0.17186  0.51049  Biso   1.000  O
  O23      1.0000 0.50046  0.82831  0.13174  Biso   1.000  O
  O24      1.0000 0.15074  0.50064  0.84361  Biso   1.000  O
  Si1      1.0000 0.11462  0.33781  0.88750  Biso   1.000  Si
  Si2      1.0000 0.33765  0.87092  0.10184  Biso   1.000  Si
  Si3      1.0000 0.66452  0.89592  0.12321  Biso   1.000  Si
  Si4      1.0000 0.89978  0.12382  0.67313  Biso   1.000  Si
  Si5      1.0000 0.12241  0.66725  0.88805  Biso   1.000  Si
  Si6      1.0000 0.90239  0.66921  0.11960  Biso   1.000  Si
  Si7      1.0000 0.12863  0.89915  0.66288  Biso   1.000  Si
  Si8      1.0000 0.67197  0.11878  0.89473  Biso   1.000  Si
  Si9      1.0000 0.33983  0.10853  0.87934  Biso   1.000  Si
  Si10     1.0000 0.11319  0.87476  0.32594  Biso   1.000  Si
  Si11     1.0000 0.88331  0.34008  0.10861  Biso   1.000  Si
  Al1      1.0000 0.86943  0.10096  0.32775  Biso   1.000  Al
  Ni1      1.0000 0.98255  0.35496  0.46957  Biso   1.000  Ni
  O25      1.0000 0.09911  0.52767  0.47030  Biso   1.000  O
  H1       1.0000 0.21336  0.53105  0.49032  Biso   1.000  H
  C1       1.0000 0.38851  0.54746  0.52591  Biso   1.000  C
  H2       1.0000 0.41031  0.66023  0.50744  Biso   1.000  H
  H3       1.0000 0.39129  0.52206  0.63764  Biso   1.000  H
  H4       1.0000 0.42709  0.46871  0.44963  Biso   1.000  H
  H5       1.0000 0.08027  0.58735  0.39073  Biso   1.000  H
