data_image0
_cell_length_a       9.33403
_cell_length_b       9.33413
_cell_length_c       9.33383
_cell_angle_alpha    94.5421
_cell_angle_beta     94.5397
_cell_angle_gamma    94.5446

_symmetry_space_group_name_H-M    "P 1"
_symmetry_int_tables_number       1

loop_
  _symmetry_equiv_pos_as_xyz
  'x, y, z'

loop_
  _atom_site_label
  _atom_site_occupancy
  _atom_site_fract_x
  _atom_site_fract_y
  _atom_site_fract_z
  _atom_site_thermal_displace_type
  _atom_site_B_iso_or_equiv
  _atom_site_type_symbol
  O1       1.0000 0.26137  0.25708  0.90341  Biso   1.000  O
  O2       1.0000 0.01790  0.00534  0.30004  Biso   1.000  O
  O3       1.0000 0.89979  0.27188  0.26131  Biso   1.000  O
  O4       1.0000 0.32999  0.02011  0.02137  Biso   1.000  O
  O5       1.0000 0.26623  0.89204  0.25318  Biso   1.000  O
  O6       1.0000 0.03872  0.34093  0.03776  Biso   1.000  O
  O7       1.0000 0.76736  0.76410  0.12220  Biso   1.000  O
  O8       1.0000 0.97812  0.97499  0.67338  Biso   1.000  O
  O9       1.0000 0.74917  0.10246  0.74505  Biso   1.000  O
  O10      1.0000 0.97263  0.67808  0.96499  Biso   1.000  O
  O11      1.0000 0.11650  0.75343  0.74423  Biso   1.000  O
  O12      1.0000 0.67713  0.96886  0.96986  Biso   1.000  O
  O13      1.0000 0.25514  0.73672  0.00011  Biso   1.000  O
  O14      1.0000 0.00483  0.25633  0.75812  Biso   1.000  O
  O15      1.0000 0.70930  0.01162  0.25861  Biso   1.000  O
  O16      1.0000 0.75737  0.25168  0.99982  Biso   1.000  O
  O17      1.0000 0.02552  0.72097  0.25404  Biso   1.000  O
  O18      1.0000 0.26344  0.01016  0.73742  Biso   1.000  O
  O19      1.0000 0.15532  0.85702  0.49602  Biso   1.000  O
  O20      1.0000 0.50745  0.15452  0.85588  Biso   1.000  O
  O21      1.0000 0.84319  0.50514  0.13753  Biso   1.000  O
  O22      1.0000 0.87156  0.17149  0.51055  Biso   1.000  O
  O23      1.0000 0.50125  0.82835  0.13124  Biso   1.000  O
  O24      1.0000 0.15167  0.50128  0.84377  Biso   1.000  O
  Si1      1.0000 0.11511  0.33846  0.88715  Biso   1.000  Si
  Si2      1.0000 0.33804  0.87150  0.10154  Biso   1.000  Si
  Si3      1.0000 0.66519  0.89615  0.12334  Biso   1.000  Si
  Si4      1.0000 0.90010  0.12437  0.67293  Biso   1.000  Si
  Si5      1.0000 0.12281  0.66790  0.88782  Biso   1.000  Si
  Si6      1.0000 0.90299  0.66947  0.11930  Biso   1.000  Si
  Si7      1.0000 0.12930  0.89974  0.66250  Biso   1.000  Si
  Si8      1.0000 0.67265  0.11941  0.89469  Biso   1.000  Si
  Si9      1.0000 0.34013  0.10889  0.87907  Biso   1.000  Si
  Si10     1.0000 0.11413  0.87506  0.32575  Biso   1.000  Si
  Si11     1.0000 0.88418  0.34049  0.10846  Biso   1.000  Si
  Al1      1.0000 0.87031  0.10121  0.32830  Biso   1.000  Al
  Ni1      1.0000 0.98165  0.35574  0.46841  Biso   1.000  Ni
  O25      1.0000 0.09999  0.52477  0.47088  Biso   1.000  O
  H1       1.0000 0.22635  0.53255  0.49229  Biso   1.000  H
  C1       1.0000 0.37820  0.54671  0.52426  Biso   1.000  C
  H2       1.0000 0.41047  0.65848  0.50634  Biso   1.000  H
  H3       1.0000 0.38392  0.52113  0.63639  Biso   1.000  H
  H4       1.0000 0.08080  0.58747  0.39447  Biso   1.000  H
  O26      1.0000 0.44089  0.44339  0.44071  Biso   1.000  O
  H5       1.0000 0.45987  0.47848  0.34864  Biso   1.000  H
