data_image0
_cell_length_a       9.46362
_cell_length_b       9.46352
_cell_length_c       9.4638
_cell_angle_alpha    94.5227
_cell_angle_beta     94.5193
_cell_angle_gamma    94.5229

_symmetry_space_group_name_H-M    "P 1"
_symmetry_int_tables_number       1

loop_
  _symmetry_equiv_pos_as_xyz
  'x, y, z'

loop_
  _atom_site_label
  _atom_site_occupancy
  _atom_site_fract_x
  _atom_site_fract_y
  _atom_site_fract_z
  _atom_site_thermal_displace_type
  _atom_site_B_iso_or_equiv
  _atom_site_type_symbol
  P1       1.0000 0.11288  0.33239  0.87964  Biso   1.000  P
  Si1      1.0000 0.87359  0.10928  0.32761  Biso   1.000  Si
  P2       1.0000 0.33141  0.86905  0.10239  Biso   1.000  P
  Al1      1.0000 0.66248  0.90124  0.12143  Biso   1.000  Al
  Al2      1.0000 0.89843  0.11996  0.66551  Biso   1.000  Al
  Al3      1.0000 0.11937  0.66324  0.88958  Biso   1.000  Al
  P3       1.0000 0.88909  0.66699  0.11268  Biso   1.000  P
  P4       1.0000 0.12069  0.88863  0.65600  Biso   1.000  P
  P5       1.0000 0.66421  0.11689  0.88304  Biso   1.000  P
  Al4      1.0000 0.33159  0.09839  0.87037  Biso   1.000  Al
  Al5      1.0000 0.10077  0.87363  0.32358  Biso   1.000  Al
  Al6      1.0000 0.87508  0.33656  0.09328  Biso   1.000  Al
  O1       1.0000 0.24927  0.25686  0.89719  Biso   1.000  O
  O2       1.0000 0.01209  0.02536  0.31068  Biso   1.000  O
  O3       1.0000 0.89209  0.26831  0.26141  Biso   1.000  O
  O4       1.0000 0.32196  0.00373  0.02172  Biso   1.000  O
  O5       1.0000 0.25928  0.89018  0.24022  Biso   1.000  O
  O6       1.0000 0.03880  0.33061  0.01876  Biso   1.000  O
  O7       1.0000 0.75930  0.75193  0.10563  Biso   1.000  O
  O8       1.0000 0.97967  0.95956  0.66238  Biso   1.000  O
  O9       1.0000 0.73900  0.10042  0.74581  Biso   1.000  O
  O10      1.0000 0.95935  0.67339  0.97149  Biso   1.000  O
  O11      1.0000 0.11174  0.75596  0.73788  Biso   1.000  O
  O12      1.0000 0.67046  0.97964  0.95801  Biso   1.000  O
  O13      1.0000 0.26004  0.73885  0.00927  Biso   1.000  O
  O14      1.0000 0.01254  0.25748  0.75671  Biso   1.000  O
  O15      1.0000 0.72910  0.02190  0.26158  Biso   1.000  O
  O16      1.0000 0.73731  0.24430  0.98030  Biso   1.000  O
  O17      1.0000 0.99561  0.72220  0.23952  Biso   1.000  O
  O18      1.0000 0.24525  0.99434  0.72143  Biso   1.000  O
  O19      1.0000 0.14530  0.84354  0.50201  Biso   1.000  O
  O20      1.0000 0.50968  0.14590  0.84334  Biso   1.000  O
  O21      1.0000 0.83748  0.51222  0.13170  Biso   1.000  O
  O22      1.0000 0.86423  0.17522  0.49414  Biso   1.000  O
  O23      1.0000 0.48616  0.84196  0.13936  Biso   1.000  O
  O24      1.0000 0.15041  0.48560  0.84572  Biso   1.000  O
  Ni1      1.0000 0.88150  0.38463  0.44291  Biso   1.000  Ni
  O25      1.0000 0.83755  0.52728  0.54916  Biso   1.000  O
  C1       1.0000 0.62740  0.54200  0.69877  Biso   1.000  C
  H1       1.0000 0.66864  0.61123  0.79254  Biso   1.000  H
  H2       1.0000 0.59702  0.43230  0.71776  Biso   1.000  H
  H3       1.0000 0.74164  0.53360  0.62272  Biso   1.000  H
  H4       1.0000 0.55370  0.58865  0.62547  Biso   1.000  H
