data_image0
_cell_length_a       5.8028
_cell_length_b       6.3014
_cell_length_c       30
_cell_angle_alpha    90
_cell_angle_beta     90
_cell_angle_gamma    90

_symmetry_space_group_name_H-M    "P 1"
_symmetry_int_tables_number       1

loop_
  _symmetry_equiv_pos_as_xyz
  'x, y, z'

loop_
  _atom_site_label
  _atom_site_occupancy
  _atom_site_fract_x
  _atom_site_fract_y
  _atom_site_fract_z
  _atom_site_thermal_displace_type
  _atom_site_B_iso_or_equiv
  _atom_site_type_symbol
  O1       1.0000 0.99999  0.99990  0.06670  Biso   1.000  O
  O2       1.0000 0.49999  0.99991  0.06670  Biso   1.000  O
  O3       1.0000 0.25000  0.30653  0.10502  Biso   1.000  O
  O4       1.0000 0.25000  0.69347  0.10502  Biso   1.000  O
  O5       1.0000 0.75000  0.30653  0.10502  Biso   1.000  O
  O6       1.0000 0.75000  0.69347  0.10502  Biso   1.000  O
  Ge1      1.0000 0.00000  0.50000  0.10502  Biso   1.000  Ge
  Ge2      1.0000 0.25000  0.00000  0.10502  Biso   1.000  Ge
  Ge3      1.0000 0.50000  0.50000  0.10502  Biso   1.000  Ge
  Ge4      1.0000 0.75000  0.00000  0.10502  Biso   1.000  Ge
  O7       1.0000 0.00000  0.00000  0.14566  Biso   1.000  O
  O8       1.0000 0.50000  0.00000  0.14566  Biso   1.000  O
  O9       1.0000 0.00000  0.50000  0.16941  Biso   1.000  O
  O10      1.0000 0.50000  0.50000  0.16941  Biso   1.000  O
  O11      1.0000 0.25000  0.19347  0.21005  Biso   1.000  O
  O12      1.0000 0.25000  0.80653  0.21005  Biso   1.000  O
  O13      1.0000 0.75000  0.19347  0.21005  Biso   1.000  O
  O14      1.0000 0.75000  0.80653  0.21005  Biso   1.000  O
  Ge5      1.0000 0.00000  0.00000  0.21005  Biso   1.000  Ge
  Ge6      1.0000 0.25000  0.50000  0.21005  Biso   1.000  Ge
  Ge7      1.0000 0.50000  0.00000  0.21005  Biso   1.000  Ge
  Ge8      1.0000 0.75000  0.50000  0.21005  Biso   1.000  Ge
  O15      1.0000 0.00000  0.50000  0.25069  Biso   1.000  O
  O16      1.0000 0.50000  0.50000  0.25069  Biso   1.000  O
  O17      1.0000 0.50076  0.99893  0.27538  Biso   1.000  O
  O18      1.0000 0.00066  0.99892  0.27524  Biso   1.000  O
  Ge9      1.0000 0.25122  0.99943  0.31441  Biso   1.000  Ge
  Ge10     1.0000 0.75054  0.99941  0.31445  Biso   1.000  Ge
  O19      1.0000 0.25001  0.69382  0.31708  Biso   1.000  O
  O20      1.0000 0.75159  0.69382  0.31711  Biso   1.000  O
  O21      1.0000 0.24953  0.30473  0.31675  Biso   1.000  O
  O22      1.0000 0.75207  0.30475  0.31681  Biso   1.000  O
  Ge11     1.0000 0.50078  0.49898  0.31618  Biso   1.000  Ge
  Ge12     1.0000 0.00083  0.49940  0.31602  Biso   1.000  Ge
  O23      1.0000 0.50082  0.00100  0.35744  Biso   1.000  O
  O24      1.0000 0.00104  0.99985  0.35653  Biso   1.000  O
  O25      1.0000 0.50087  0.49542  0.38094  Biso   1.000  O
  O26      1.0000 0.00115  0.49800  0.38483  Biso   1.000  O
  Ge13     1.0000 0.50088  0.99855  0.41938  Biso   1.000  Ge
  Ge14     1.0000 0.00095  0.99617  0.41725  Biso   1.000  Ge
  O27      1.0000 0.24720  0.80816  0.42780  Biso   1.000  O
  O28      1.0000 0.75461  0.80809  0.42763  Biso   1.000  O
  O29      1.0000 0.24503  0.18616  0.42951  Biso   1.000  O
  O30      1.0000 0.75685  0.18609  0.42944  Biso   1.000  O
  Ge15     1.0000 0.25923  0.49850  0.42549  Biso   1.000  Ge
  Ge16     1.0000 0.74255  0.49842  0.42538  Biso   1.000  Ge
  O31      1.0000 0.50103  0.49719  0.46426  Biso   1.000  O
  O32      1.0000 0.00064  0.50952  0.46873  Biso   1.000  O
  H1       1.0000 0.99918  0.39646  0.49096  Biso   1.000  H
