data_image0
_cell_length_a       5.8028
_cell_length_b       6.3014
_cell_length_c       30
_cell_angle_alpha    90
_cell_angle_beta     90
_cell_angle_gamma    90

_symmetry_space_group_name_H-M    "P 1"
_symmetry_int_tables_number       1

loop_
  _symmetry_equiv_pos_as_xyz
  'x, y, z'

loop_
  _atom_site_label
  _atom_site_occupancy
  _atom_site_fract_x
  _atom_site_fract_y
  _atom_site_fract_z
  _atom_site_thermal_displace_type
  _atom_site_B_iso_or_equiv
  _atom_site_type_symbol
  O1       1.0000 1.00000  0.00004  0.06651  Biso   1.000  O
  O2       1.0000 0.50000  0.00004  0.06651  Biso   1.000  O
  O3       1.0000 0.25000  0.30653  0.10502  Biso   1.000  O
  O4       1.0000 0.25000  0.69347  0.10502  Biso   1.000  O
  O5       1.0000 0.75000  0.30653  0.10502  Biso   1.000  O
  O6       1.0000 0.75000  0.69347  0.10502  Biso   1.000  O
  Ge1      1.0000 0.00000  0.50000  0.10502  Biso   1.000  Ge
  Ge2      1.0000 0.25000  0.00000  0.10502  Biso   1.000  Ge
  Ge3      1.0000 0.50000  0.50000  0.10502  Biso   1.000  Ge
  Ge4      1.0000 0.75000  0.00000  0.10502  Biso   1.000  Ge
  O7       1.0000 0.00000  0.00000  0.14566  Biso   1.000  O
  O8       1.0000 0.50000  0.00000  0.14566  Biso   1.000  O
  O9       1.0000 0.00000  0.50000  0.16941  Biso   1.000  O
  O10      1.0000 0.50000  0.50000  0.16941  Biso   1.000  O
  O11      1.0000 0.25000  0.19347  0.21005  Biso   1.000  O
  O12      1.0000 0.25000  0.80653  0.21005  Biso   1.000  O
  O13      1.0000 0.75000  0.19347  0.21005  Biso   1.000  O
  O14      1.0000 0.75000  0.80653  0.21005  Biso   1.000  O
  Ge5      1.0000 0.00000  0.00000  0.21005  Biso   1.000  Ge
  Ge6      1.0000 0.25000  0.50000  0.21005  Biso   1.000  Ge
  Ge7      1.0000 0.50000  0.00000  0.21005  Biso   1.000  Ge
  Ge8      1.0000 0.75000  0.50000  0.21005  Biso   1.000  Ge
  O15      1.0000 0.00000  0.50000  0.25069  Biso   1.000  O
  O16      1.0000 0.50000  0.50000  0.25069  Biso   1.000  O
  O17      1.0000 0.50096  0.00205  0.27525  Biso   1.000  O
  O18      1.0000 0.00110  0.00267  0.27416  Biso   1.000  O
  Ge9      1.0000 0.24580  0.00041  0.31529  Biso   1.000  Ge
  Ge10     1.0000 0.75722  0.00040  0.31517  Biso   1.000  Ge
  O19      1.0000 0.24948  0.69411  0.31531  Biso   1.000  O
  O20      1.0000 0.75319  0.69414  0.31538  Biso   1.000  O
  O21      1.0000 0.25062  0.30755  0.31668  Biso   1.000  O
  O22      1.0000 0.75197  0.30758  0.31668  Biso   1.000  O
  Ge11     1.0000 0.50131  0.50191  0.31612  Biso   1.000  Ge
  Ge12     1.0000 0.00121  0.50102  0.31708  Biso   1.000  Ge
  O23      1.0000 0.50265  0.99428  0.35521  Biso   1.000  O
  O24      1.0000 0.00185  0.99833  0.35694  Biso   1.000  O
  O25      1.0000 0.50299  0.51265  0.37998  Biso   1.000  O
  O26      1.0000 0.00254  0.50885  0.38388  Biso   1.000  O
  Ge13     1.0000 0.50480  0.00192  0.41502  Biso   1.000  Ge
  Ge14     1.0000 0.00427  0.00898  0.42992  Biso   1.000  Ge
  O27      1.0000 0.25688  0.81594  0.42727  Biso   1.000  O
  O28      1.0000 0.75061  0.81569  0.42748  Biso   1.000  O
  O29      1.0000 0.26232  0.19493  0.42164  Biso   1.000  O
  O30      1.0000 0.74752  0.19408  0.42253  Biso   1.000  O
  Ge15     1.0000 0.26256  0.50318  0.42413  Biso   1.000  Ge
  Ge16     1.0000 0.74383  0.50460  0.42449  Biso   1.000  Ge
  O31      1.0000 0.50258  0.49975  0.46330  Biso   1.000  O
  O32      1.0000 0.00321  0.49556  0.46657  Biso   1.000  O
  O33      1.0000 0.99793  0.06622  0.49023  Biso   1.000  O
  H1       1.0000 0.99954  0.35768  0.48315  Biso   1.000  H
  H2       1.0000 0.21470  0.83555  0.51854  Biso   1.000  H
  H3       1.0000 0.14121  0.05777  0.55219  Biso   1.000  H
  C1       1.0000 0.18620  0.00689  0.51849  Biso   1.000  C
  H4       1.0000 0.34712  0.08753  0.50918  Biso   1.000  H
