data_image0
_cell_length_a       5.8028
_cell_length_b       6.3014
_cell_length_c       30
_cell_angle_alpha    90
_cell_angle_beta     90
_cell_angle_gamma    90

_symmetry_space_group_name_H-M    "P 1"
_symmetry_int_tables_number       1

loop_
  _symmetry_equiv_pos_as_xyz
  'x, y, z'

loop_
  _atom_site_label
  _atom_site_occupancy
  _atom_site_fract_x
  _atom_site_fract_y
  _atom_site_fract_z
  _atom_site_thermal_displace_type
  _atom_site_B_iso_or_equiv
  _atom_site_type_symbol
  O1       1.0000 0.99999  0.00013  0.06628  Biso   1.000  O
  O2       1.0000 0.49999  0.00011  0.06628  Biso   1.000  O
  O3       1.0000 0.25000  0.30653  0.10502  Biso   1.000  O
  O4       1.0000 0.25000  0.69347  0.10502  Biso   1.000  O
  O5       1.0000 0.75000  0.30653  0.10502  Biso   1.000  O
  O6       1.0000 0.75000  0.69347  0.10502  Biso   1.000  O
  Ge1      1.0000 0.00000  0.50000  0.10502  Biso   1.000  Ge
  Ge2      1.0000 0.25000  0.00000  0.10502  Biso   1.000  Ge
  Ge3      1.0000 0.50000  0.50000  0.10502  Biso   1.000  Ge
  Ge4      1.0000 0.75000  0.00000  0.10502  Biso   1.000  Ge
  O7       1.0000 0.00000  0.00000  0.14566  Biso   1.000  O
  O8       1.0000 0.50000  0.00000  0.14566  Biso   1.000  O
  O9       1.0000 0.00000  0.50000  0.16941  Biso   1.000  O
  O10      1.0000 0.50000  0.50000  0.16941  Biso   1.000  O
  O11      1.0000 0.25000  0.19347  0.21005  Biso   1.000  O
  O12      1.0000 0.25000  0.80653  0.21005  Biso   1.000  O
  O13      1.0000 0.75000  0.19347  0.21005  Biso   1.000  O
  O14      1.0000 0.75000  0.80653  0.21005  Biso   1.000  O
  Ge5      1.0000 0.00000  0.00000  0.21005  Biso   1.000  Ge
  Ge6      1.0000 0.25000  0.50000  0.21005  Biso   1.000  Ge
  Ge7      1.0000 0.50000  0.00000  0.21005  Biso   1.000  Ge
  Ge8      1.0000 0.75000  0.50000  0.21005  Biso   1.000  Ge
  O15      1.0000 0.00000  0.50000  0.25069  Biso   1.000  O
  O16      1.0000 0.50000  0.50000  0.25069  Biso   1.000  O
  O17      1.0000 0.50089  0.99935  0.27454  Biso   1.000  O
  O18      1.0000 0.00164  0.99991  0.27403  Biso   1.000  O
  Ge9      1.0000 0.24715  0.00037  0.31501  Biso   1.000  Ge
  Ge10     1.0000 0.75650  0.00060  0.31472  Biso   1.000  Ge
  O19      1.0000 0.25137  0.69487  0.31563  Biso   1.000  O
  O20      1.0000 0.75196  0.69504  0.31527  Biso   1.000  O
  O21      1.0000 0.25170  0.30644  0.31533  Biso   1.000  O
  O22      1.0000 0.75170  0.30656  0.31499  Biso   1.000  O
  Ge11     1.0000 0.50178  0.50078  0.31721  Biso   1.000  Ge
  Ge12     1.0000 0.00145  0.50048  0.31815  Biso   1.000  Ge
  O23      1.0000 0.50333  0.00197  0.35464  Biso   1.000  O
  O24      1.0000 0.00201  0.00205  0.35695  Biso   1.000  O
  O25      1.0000 0.50415  0.50343  0.38093  Biso   1.000  O
  O26      1.0000 0.00262  0.50191  0.38132  Biso   1.000  O
  Ge13     1.0000 0.50575  0.00141  0.41462  Biso   1.000  Ge
  Ge14     1.0000 0.00558  0.00377  0.42831  Biso   1.000  Ge
  O27      1.0000 0.26128  0.81492  0.42440  Biso   1.000  O
  O28      1.0000 0.74874  0.81419  0.42502  Biso   1.000  O
  O29      1.0000 0.26215  0.19166  0.42420  Biso   1.000  O
  O30      1.0000 0.74792  0.19081  0.42457  Biso   1.000  O
  Ge15     1.0000 0.25526  0.50141  0.42538  Biso   1.000  Ge
  Ge16     1.0000 0.75399  0.50213  0.42669  Biso   1.000  Ge
  O31      1.0000 0.50267  0.50356  0.46415  Biso   1.000  O
  O32      1.0000 0.00657  0.50206  0.46359  Biso   1.000  O
  O33      1.0000 0.98873  0.00754  0.49066  Biso   1.000  O
  H1       1.0000 0.25886  0.84274  0.51932  Biso   1.000  H
  H2       1.0000 0.12673  0.04485  0.55227  Biso   1.000  H
  C1       1.0000 0.18255  0.00318  0.51859  Biso   1.000  C
  H3       1.0000 0.31810  0.11413  0.50795  Biso   1.000  H
