data_image0
_cell_length_a       6.44749
_cell_length_b       5.2291
_cell_length_c       26.4589
_cell_angle_alpha    90
_cell_angle_beta     90
_cell_angle_gamma    90

_symmetry_space_group_name_H-M    "P 1"
_symmetry_int_tables_number       1

loop_
  _symmetry_equiv_pos_as_xyz
  'x, y, z'

loop_
  _atom_site_label
  _atom_site_occupancy
  _atom_site_fract_x
  _atom_site_fract_y
  _atom_site_fract_z
  _atom_site_thermal_displace_type
  _atom_site_B_iso_or_equiv
  _atom_site_type_symbol
  O1       1.0000 0.25000  0.37857  0.10771  Biso   1.000  O
  O2       1.0000 0.75001  0.37857  0.10771  Biso   1.000  O
  Zn1      1.0000 0.25000  0.99674  0.10796  Biso   1.000  Zn
  Zn2      1.0000 0.75001  0.99674  0.10796  Biso   1.000  Zn
  Zn3      1.0000 0.50001  0.49673  0.14503  Biso   1.000  Zn
  Zn4      1.0000 1.00000  0.49673  0.14503  Biso   1.000  Zn
  O3       1.0000 0.50001  0.87857  0.14527  Biso   1.000  O
  O4       1.0000 1.00000  0.87857  0.14527  Biso   1.000  O
  O5       1.0000 0.50001  0.37857  0.21647  Biso   1.000  O
  O6       1.0000 1.00000  0.37857  0.21647  Biso   1.000  O
  Zn5      1.0000 0.50001  0.99673  0.21672  Biso   1.000  Zn
  Zn6      1.0000 1.00000  0.99673  0.21672  Biso   1.000  Zn
  Zn7      1.0000 0.25000  0.49674  0.25378  Biso   1.000  Zn
  Zn8      1.0000 0.75001  0.49674  0.25378  Biso   1.000  Zn
  O7       1.0000 0.25000  0.87857  0.25402  Biso   1.000  O
  O8       1.0000 0.75001  0.87857  0.25402  Biso   1.000  O
  O9       1.0000 0.25194  0.37792  0.32553  Biso   1.000  O
  O10      1.0000 0.75198  0.37976  0.32616  Biso   1.000  O
  Zn9      1.0000 0.25182  0.99475  0.32663  Biso   1.000  Zn
  Zn10     1.0000 0.75136  0.99596  0.32664  Biso   1.000  Zn
  Zn11     1.0000 0.49961  0.49800  0.36302  Biso   1.000  Zn
  Zn12     1.0000 0.00453  0.49856  0.36295  Biso   1.000  Zn
  O11      1.0000 0.50130  0.88062  0.36472  Biso   1.000  O
  O12      1.0000 0.00180  0.88098  0.36452  Biso   1.000  O
  O13      1.0000 0.49733  0.38122  0.43595  Biso   1.000  O
  O14      1.0000 0.00679  0.38210  0.43598  Biso   1.000  O
  Zn13     1.0000 0.50409  0.99688  0.43867  Biso   1.000  Zn
  Zn14     1.0000 0.00138  0.99796  0.43824  Biso   1.000  Zn
  Zn15     1.0000 0.25279  0.51819  0.47446  Biso   1.000  Zn
  Zn16     1.0000 0.75165  0.53004  0.46155  Biso   1.000  Zn
  O15      1.0000 0.25204  0.88625  0.47594  Biso   1.000  O
  O16      1.0000 0.75344  0.88458  0.47449  Biso   1.000  O
  O17      1.0000 0.26420  0.26611  0.53582  Biso   1.000  O
  H1       1.0000 0.26065  0.09191  0.51670  Biso   1.000  H
  H2       1.0000 0.10873  0.45365  0.59260  Biso   1.000  H
  H3       1.0000 0.16450  0.12664  0.60519  Biso   1.000  H
  C1       1.0000 0.11565  0.26261  0.57605  Biso   1.000  C
  H4       1.0000 0.96115  0.20785  0.56256  Biso   1.000  H
