data_image0
_cell_length_a       6.44749
_cell_length_b       5.2291
_cell_length_c       26.4589
_cell_angle_alpha    90
_cell_angle_beta     90
_cell_angle_gamma    90

_symmetry_space_group_name_H-M    "P 1"
_symmetry_int_tables_number       1

loop_
  _symmetry_equiv_pos_as_xyz
  'x, y, z'

loop_
  _atom_site_label
  _atom_site_occupancy
  _atom_site_fract_x
  _atom_site_fract_y
  _atom_site_fract_z
  _atom_site_thermal_displace_type
  _atom_site_B_iso_or_equiv
  _atom_site_type_symbol
  O1       1.0000 0.25000  0.37857  0.10771  Biso   1.000  O
  O2       1.0000 0.75001  0.37857  0.10771  Biso   1.000  O
  Zn1      1.0000 0.25000  0.99674  0.10796  Biso   1.000  Zn
  Zn2      1.0000 0.75001  0.99674  0.10796  Biso   1.000  Zn
  Zn3      1.0000 0.50001  0.49673  0.14503  Biso   1.000  Zn
  Zn4      1.0000 1.00000  0.49673  0.14503  Biso   1.000  Zn
  O3       1.0000 0.50001  0.87857  0.14527  Biso   1.000  O
  O4       1.0000 1.00000  0.87857  0.14527  Biso   1.000  O
  O5       1.0000 0.50001  0.37857  0.21647  Biso   1.000  O
  O6       1.0000 1.00000  0.37857  0.21647  Biso   1.000  O
  Zn5      1.0000 0.50001  0.99673  0.21672  Biso   1.000  Zn
  Zn6      1.0000 1.00000  0.99673  0.21672  Biso   1.000  Zn
  Zn7      1.0000 0.25000  0.49674  0.25378  Biso   1.000  Zn
  Zn8      1.0000 0.75001  0.49674  0.25378  Biso   1.000  Zn
  O7       1.0000 0.25000  0.87857  0.25402  Biso   1.000  O
  O8       1.0000 0.75001  0.87857  0.25402  Biso   1.000  O
  O9       1.0000 0.25001  0.37524  0.32558  Biso   1.000  O
  O10      1.0000 0.74999  0.37532  0.32561  Biso   1.000  O
  Zn9      1.0000 0.24986  0.99166  0.32716  Biso   1.000  Zn
  Zn10     1.0000 0.75014  0.99169  0.32716  Biso   1.000  Zn
  Zn11     1.0000 0.49992  0.49640  0.36185  Biso   1.000  Zn
  Zn12     1.0000 0.00009  0.49632  0.36182  Biso   1.000  Zn
  O11      1.0000 0.50001  0.87675  0.36491  Biso   1.000  O
  O12      1.0000 0.00001  0.87662  0.36494  Biso   1.000  O
  O13      1.0000 0.49980  0.37226  0.43536  Biso   1.000  O
  O14      1.0000 0.00026  0.37206  0.43532  Biso   1.000  O
  Zn13     1.0000 0.50014  0.99111  0.44063  Biso   1.000  Zn
  Zn14     1.0000 0.00012  0.99101  0.44067  Biso   1.000  Zn
  Zn15     1.0000 0.24987  0.52584  0.46317  Biso   1.000  Zn
  Zn16     1.0000 0.75018  0.52568  0.46290  Biso   1.000  Zn
  O15      1.0000 0.25016  0.87829  0.47502  Biso   1.000  O
  O16      1.0000 0.75010  0.87799  0.47494  Biso   1.000  O
