data_image0
_cell_length_a       6.44749
_cell_length_b       5.2291
_cell_length_c       26.4589
_cell_angle_alpha    90
_cell_angle_beta     90
_cell_angle_gamma    90

_symmetry_space_group_name_H-M    "P 1"
_symmetry_int_tables_number       1

loop_
  _symmetry_equiv_pos_as_xyz
  'x, y, z'

loop_
  _atom_site_label
  _atom_site_occupancy
  _atom_site_fract_x
  _atom_site_fract_y
  _atom_site_fract_z
  _atom_site_thermal_displace_type
  _atom_site_B_iso_or_equiv
  _atom_site_type_symbol
  O1       1.0000 0.25000  0.37857  0.10771  Biso   1.000  O
  O2       1.0000 0.75001  0.37857  0.10771  Biso   1.000  O
  Zn1      1.0000 0.25000  0.99674  0.10796  Biso   1.000  Zn
  Zn2      1.0000 0.75001  0.99674  0.10796  Biso   1.000  Zn
  Zn3      1.0000 0.50001  0.49673  0.14503  Biso   1.000  Zn
  Zn4      1.0000 1.00000  0.49673  0.14503  Biso   1.000  Zn
  O3       1.0000 0.50001  0.87857  0.14527  Biso   1.000  O
  O4       1.0000 1.00000  0.87857  0.14527  Biso   1.000  O
  O5       1.0000 0.50001  0.37857  0.21647  Biso   1.000  O
  O6       1.0000 1.00000  0.37857  0.21647  Biso   1.000  O
  Zn5      1.0000 0.50001  0.99673  0.21672  Biso   1.000  Zn
  Zn6      1.0000 1.00000  0.99673  0.21672  Biso   1.000  Zn
  Zn7      1.0000 0.25000  0.49674  0.25378  Biso   1.000  Zn
  Zn8      1.0000 0.75001  0.49674  0.25378  Biso   1.000  Zn
  O7       1.0000 0.25000  0.87857  0.25402  Biso   1.000  O
  O8       1.0000 0.75001  0.87857  0.25402  Biso   1.000  O
  O9       1.0000 0.24972  0.38130  0.32554  Biso   1.000  O
  O10      1.0000 0.74942  0.38340  0.32643  Biso   1.000  O
  Zn9      1.0000 0.24925  0.99810  0.32660  Biso   1.000  Zn
  Zn10     1.0000 0.74929  0.99937  0.32662  Biso   1.000  Zn
  Zn11     1.0000 0.49607  0.49912  0.36452  Biso   1.000  Zn
  Zn12     1.0000 0.00333  0.49943  0.36438  Biso   1.000  Zn
  O11      1.0000 0.49874  0.88308  0.36460  Biso   1.000  O
  O12      1.0000 0.99986  0.88323  0.36458  Biso   1.000  O
  O13      1.0000 0.49081  0.38422  0.43689  Biso   1.000  O
  O14      1.0000 0.00578  0.38374  0.43661  Biso   1.000  O
  Zn13     1.0000 0.50953  0.00430  0.43711  Biso   1.000  Zn
  Zn14     1.0000 0.98828  0.00392  0.43716  Biso   1.000  Zn
  Zn15     1.0000 0.24784  0.46833  0.48598  Biso   1.000  Zn
  Zn16     1.0000 0.74876  0.52645  0.46317  Biso   1.000  Zn
  O15      1.0000 0.24915  0.87165  0.47274  Biso   1.000  O
  O16      1.0000 0.74878  0.88356  0.47478  Biso   1.000  O
  H1       1.0000 0.24898  0.94775  0.50645  Biso   1.000  H
  C1       1.0000 0.24257  0.36137  0.55786  Biso   1.000  C
  H2       1.0000 0.21595  0.52750  0.58215  Biso   1.000  H
  H3       1.0000 0.38926  0.27515  0.56987  Biso   1.000  H
  H4       1.0000 0.11778  0.22539  0.56616  Biso   1.000  H
