data_image0
_cell_length_a       6.44749
_cell_length_b       5.2291
_cell_length_c       26.4589
_cell_angle_alpha    90
_cell_angle_beta     90
_cell_angle_gamma    90

_symmetry_space_group_name_H-M    "P 1"
_symmetry_int_tables_number       1

loop_
  _symmetry_equiv_pos_as_xyz
  'x, y, z'

loop_
  _atom_site_label
  _atom_site_occupancy
  _atom_site_fract_x
  _atom_site_fract_y
  _atom_site_fract_z
  _atom_site_thermal_displace_type
  _atom_site_B_iso_or_equiv
  _atom_site_type_symbol
  O1       1.0000 0.25000  0.37857  0.10771  Biso   1.000  O
  O2       1.0000 0.75001  0.37857  0.10771  Biso   1.000  O
  Zn1      1.0000 0.25000  0.99674  0.10796  Biso   1.000  Zn
  Zn2      1.0000 0.75001  0.99674  0.10796  Biso   1.000  Zn
  Zn3      1.0000 0.50001  0.49673  0.14503  Biso   1.000  Zn
  Zn4      1.0000 1.00000  0.49673  0.14503  Biso   1.000  Zn
  O3       1.0000 0.50001  0.87857  0.14527  Biso   1.000  O
  O4       1.0000 1.00000  0.87857  0.14527  Biso   1.000  O
  O5       1.0000 0.50001  0.37857  0.21647  Biso   1.000  O
  O6       1.0000 1.00000  0.37857  0.21647  Biso   1.000  O
  Zn5      1.0000 0.50001  0.99673  0.21672  Biso   1.000  Zn
  Zn6      1.0000 1.00000  0.99673  0.21672  Biso   1.000  Zn
  Zn7      1.0000 0.25000  0.49674  0.25378  Biso   1.000  Zn
  Zn8      1.0000 0.75001  0.49674  0.25378  Biso   1.000  Zn
  O7       1.0000 0.25000  0.87857  0.25402  Biso   1.000  O
  O8       1.0000 0.75001  0.87857  0.25402  Biso   1.000  O
  O9       1.0000 0.25148  0.37842  0.32669  Biso   1.000  O
  O10      1.0000 0.75185  0.37807  0.32685  Biso   1.000  O
  Zn9      1.0000 0.25132  0.99505  0.32606  Biso   1.000  Zn
  Zn10     1.0000 0.75192  0.99418  0.32590  Biso   1.000  Zn
  Zn11     1.0000 0.50099  0.49693  0.36319  Biso   1.000  Zn
  Zn12     1.0000 0.00244  0.49700  0.36336  Biso   1.000  Zn
  O11      1.0000 0.50085  0.88017  0.36594  Biso   1.000  O
  O12      1.0000 0.00244  0.88023  0.36613  Biso   1.000  O
  O13      1.0000 0.50323  0.37880  0.43767  Biso   1.000  O
  O14      1.0000 0.00220  0.37898  0.43784  Biso   1.000  O
  Zn13     1.0000 0.51979  0.99792  0.43740  Biso   1.000  Zn
  Zn14     1.0000 0.98625  0.99810  0.43769  Biso   1.000  Zn
  Zn15     1.0000 0.25292  0.48766  0.47316  Biso   1.000  Zn
  Zn16     1.0000 0.75254  0.52519  0.46899  Biso   1.000  Zn
  O15      1.0000 0.25331  0.87697  0.47674  Biso   1.000  O
  O16      1.0000 0.75266  0.88466  0.47862  Biso   1.000  O
  H1       1.0000 0.25426  0.94016  0.51153  Biso   1.000  H
