data_image0
_cell_length_a       6.44749
_cell_length_b       5.2291
_cell_length_c       26.4589
_cell_angle_alpha    90
_cell_angle_beta     90
_cell_angle_gamma    90

_symmetry_space_group_name_H-M    "P 1"
_symmetry_int_tables_number       1

loop_
  _symmetry_equiv_pos_as_xyz
  'x, y, z'

loop_
  _atom_site_label
  _atom_site_occupancy
  _atom_site_fract_x
  _atom_site_fract_y
  _atom_site_fract_z
  _atom_site_thermal_displace_type
  _atom_site_B_iso_or_equiv
  _atom_site_type_symbol
  O1       1.0000 0.25000  0.37857  0.10771  Biso   1.000  O
  O2       1.0000 0.75001  0.37857  0.10771  Biso   1.000  O
  Zn1      1.0000 0.25000  0.99674  0.10796  Biso   1.000  Zn
  Zn2      1.0000 0.75001  0.99674  0.10796  Biso   1.000  Zn
  Zn3      1.0000 0.50001  0.49673  0.14503  Biso   1.000  Zn
  Zn4      1.0000 1.00000  0.49673  0.14503  Biso   1.000  Zn
  O3       1.0000 0.50001  0.87857  0.14527  Biso   1.000  O
  O4       1.0000 1.00000  0.87857  0.14527  Biso   1.000  O
  O5       1.0000 0.50001  0.37857  0.21647  Biso   1.000  O
  O6       1.0000 1.00000  0.37857  0.21647  Biso   1.000  O
  Zn5      1.0000 0.50001  0.99673  0.21672  Biso   1.000  Zn
  Zn6      1.0000 1.00000  0.99673  0.21672  Biso   1.000  Zn
  Zn7      1.0000 0.25000  0.49674  0.25378  Biso   1.000  Zn
  Zn8      1.0000 0.75001  0.49674  0.25378  Biso   1.000  Zn
  O7       1.0000 0.25000  0.87857  0.25402  Biso   1.000  O
  O8       1.0000 0.75001  0.87857  0.25402  Biso   1.000  O
  O9       1.0000 0.25340  0.37839  0.32600  Biso   1.000  O
  O10      1.0000 0.75365  0.37966  0.32645  Biso   1.000  O
  Zn9      1.0000 0.25331  0.99496  0.32649  Biso   1.000  Zn
  Zn10     1.0000 0.75344  0.99554  0.32659  Biso   1.000  Zn
  Zn11     1.0000 0.50154  0.49738  0.36363  Biso   1.000  Zn
  Zn12     1.0000 0.00561  0.49730  0.36377  Biso   1.000  Zn
  O11      1.0000 0.50255  0.88031  0.36487  Biso   1.000  O
  O12      1.0000 0.00417  0.88034  0.36493  Biso   1.000  O
  O13      1.0000 0.50465  0.38075  0.43624  Biso   1.000  O
  O14      1.0000 0.00752  0.38103  0.43646  Biso   1.000  O
  Zn13     1.0000 0.51675  0.99439  0.43796  Biso   1.000  Zn
  Zn14     1.0000 0.99498  0.99456  0.43814  Biso   1.000  Zn
  Zn15     1.0000 0.25657  0.45550  0.47826  Biso   1.000  Zn
  Zn16     1.0000 0.75575  0.52492  0.46590  Biso   1.000  Zn
  O15      1.0000 0.25616  0.96661  0.47753  Biso   1.000  O
  O16      1.0000 0.75569  0.88072  0.47472  Biso   1.000  O
  O17      1.0000 0.25734  0.76131  0.51797  Biso   1.000  O
