data_image0
_cell_length_a       7.50446
_cell_length_b       7.50244
_cell_length_c       18.5212
_cell_angle_alpha    90
_cell_angle_beta     90
_cell_angle_gamma    119.971

_symmetry_space_group_name_H-M    "P 1"
_symmetry_int_tables_number       1

loop_
  _symmetry_equiv_pos_as_xyz
  'x, y, z'

loop_
  _atom_site_label
  _atom_site_occupancy
  _atom_site_fract_x
  _atom_site_fract_y
  _atom_site_fract_z
  _atom_site_thermal_displace_type
  _atom_site_B_iso_or_equiv
  _atom_site_type_symbol
  N1       1.0000 0.10292  0.18256  0.98794  Biso   1.000  N
  N2       1.0000 0.10198  0.51637  0.99049  Biso   1.000  N
  N3       1.0000 0.10496  0.85018  0.00320  Biso   1.000  N
  B1       1.0000 0.32266  0.28915  0.99905  Biso   1.000  B
  N4       1.0000 0.43632  0.18145  0.00292  Biso   1.000  N
  B2       1.0000 0.32283  0.62794  0.00019  Biso   1.000  B
  N5       1.0000 0.41439  0.50336  0.00807  Biso   1.000  N
  B3       1.0000 0.32628  0.96020  0.00180  Biso   1.000  B
  N6       1.0000 0.43688  0.84946  0.00280  Biso   1.000  N
  B4       1.0000 0.65881  0.29266  0.00271  Biso   1.000  B
  N7       1.0000 0.76979  0.18399  0.98999  Biso   1.000  N
  Au1      1.0000 0.64725  0.61976  0.08517  Biso   1.000  Au
  N8       1.0000 0.78013  0.50676  0.01812  Biso   1.000  N
  B5       1.0000 0.65919  0.96298  0.00057  Biso   1.000  B
  N9       1.0000 0.78280  0.87186  0.01117  Biso   1.000  N
  B6       1.0000 0.99165  0.29413  0.98871  Biso   1.000  B
  B7       1.0000 0.99373  0.62820  0.00285  Biso   1.000  B
  B8       1.0000 0.99541  0.96243  0.99969  Biso   1.000  B
  O1       1.0000 0.52474  0.63999  0.17489  Biso   1.000  O
  C1       1.0000 0.61677  0.99327  0.22166  Biso   1.000  C
  H1       1.0000 0.68661  0.00016  0.27415  Biso   1.000  H
  H2       1.0000 0.57291  0.81429  0.19721  Biso   1.000  H
  H3       1.0000 0.46619  0.98158  0.22491  Biso   1.000  H
  O2       1.0000 0.73991  0.14800  0.17394  Biso   1.000  O
  H4       1.0000 0.88321  0.18365  0.17995  Biso   1.000  H
