data_image0
_cell_length_a       7.50446
_cell_length_b       7.50244
_cell_length_c       18.5212
_cell_angle_alpha    90
_cell_angle_beta     90
_cell_angle_gamma    119.971

_symmetry_space_group_name_H-M    "P 1"
_symmetry_int_tables_number       1

loop_
  _symmetry_equiv_pos_as_xyz
  'x, y, z'

loop_
  _atom_site_label
  _atom_site_occupancy
  _atom_site_fract_x
  _atom_site_fract_y
  _atom_site_fract_z
  _atom_site_thermal_displace_type
  _atom_site_B_iso_or_equiv
  _atom_site_type_symbol
  N1       1.0000 0.11069  0.21438  0.99371  Biso   1.000  N
  N2       1.0000 0.11088  0.54674  0.99332  Biso   1.000  N
  N3       1.0000 0.10767  0.87898  0.00408  Biso   1.000  N
  B1       1.0000 0.32986  0.32277  0.00361  Biso   1.000  B
  N4       1.0000 0.44207  0.21223  0.00225  Biso   1.000  N
  B2       1.0000 0.32993  0.65739  0.00390  Biso   1.000  B
  N5       1.0000 0.42798  0.53903  0.01649  Biso   1.000  N
  B3       1.0000 0.33066  0.99043  0.00162  Biso   1.000  B
  N6       1.0000 0.44217  0.88011  0.00290  Biso   1.000  N
  B4       1.0000 0.66475  0.31963  0.00010  Biso   1.000  B
  N7       1.0000 0.77627  0.21314  0.98995  Biso   1.000  N
  Cr1      1.0000 0.67454  0.66090  0.06354  Biso   1.000  Cr
  N8       1.0000 0.78357  0.53443  0.01232  Biso   1.000  N
  B5       1.0000 0.66497  0.99559  0.00133  Biso   1.000  B
  N9       1.0000 0.78418  0.90059  0.01486  Biso   1.000  N
  B6       1.0000 0.99893  0.32464  0.99185  Biso   1.000  B
  B7       1.0000 0.00119  0.65585  0.00255  Biso   1.000  B
  B8       1.0000 0.00123  0.99587  0.00357  Biso   1.000  B
  O1       1.0000 0.64135  0.64019  0.14913  Biso   1.000  O
