data_image0
_cell_length_a       7.50446
_cell_length_b       7.50244
_cell_length_c       18.5212
_cell_angle_alpha    90
_cell_angle_beta     90
_cell_angle_gamma    119.971

_symmetry_space_group_name_H-M    "P 1"
_symmetry_int_tables_number       1

loop_
  _symmetry_equiv_pos_as_xyz
  'x, y, z'

loop_
  _atom_site_label
  _atom_site_occupancy
  _atom_site_fract_x
  _atom_site_fract_y
  _atom_site_fract_z
  _atom_site_thermal_displace_type
  _atom_site_B_iso_or_equiv
  _atom_site_type_symbol
  N1       1.0000 0.10403  0.20148  0.99324  Biso   1.000  N
  N2       1.0000 0.10339  0.53507  0.99377  Biso   1.000  N
  N3       1.0000 0.10482  0.86859  0.00426  Biso   1.000  N
  B1       1.0000 0.32275  0.30963  0.00300  Biso   1.000  B
  N4       1.0000 0.43766  0.20166  0.00425  Biso   1.000  N
  B2       1.0000 0.32256  0.64514  0.00243  Biso   1.000  B
  N5       1.0000 0.41934  0.52552  0.01436  Biso   1.000  N
  B3       1.0000 0.32684  0.97959  0.00230  Biso   1.000  B
  N6       1.0000 0.43785  0.86822  0.00336  Biso   1.000  N
  B4       1.0000 0.66085  0.31106  0.00496  Biso   1.000  B
  N7       1.0000 0.77081  0.20218  0.99350  Biso   1.000  N
  Cr1      1.0000 0.65531  0.64849  0.06634  Biso   1.000  Cr
  N8       1.0000 0.77991  0.52662  0.01896  Biso   1.000  N
  B5       1.0000 0.66106  0.98293  0.00259  Biso   1.000  B
  N9       1.0000 0.78048  0.88554  0.01449  Biso   1.000  N
  B6       1.0000 0.99265  0.31282  0.99306  Biso   1.000  B
  B7       1.0000 0.99491  0.64551  0.00483  Biso   1.000  B
  B8       1.0000 0.99603  0.98264  0.00303  Biso   1.000  B
  O1       1.0000 0.66781  0.65191  0.15997  Biso   1.000  O
  C1       1.0000 0.60445  0.92566  0.21965  Biso   1.000  C
  H1       1.0000 0.64168  0.91829  0.27624  Biso   1.000  H
  H2       1.0000 0.62975  0.76433  0.18868  Biso   1.000  H
  H3       1.0000 0.44532  0.88365  0.20933  Biso   1.000  H
  O2       1.0000 0.73570  0.10566  0.18380  Biso   1.000  O
  H4       1.0000 0.87683  0.15272  0.19888  Biso   1.000  H
