data_image0
_cell_length_a       12.26
_cell_length_b       12.2622
_cell_length_c       18
_cell_angle_alpha    90
_cell_angle_beta     90
_cell_angle_gamma    119.994

_symmetry_space_group_name_H-M    "P 1"
_symmetry_int_tables_number       1

loop_
  _symmetry_equiv_pos_as_xyz
  'x, y, z'

loop_
  _atom_site_label
  _atom_site_occupancy
  _atom_site_fract_x
  _atom_site_fract_y
  _atom_site_fract_z
  _atom_site_thermal_displace_type
  _atom_site_B_iso_or_equiv
  _atom_site_type_symbol
  C1       1.0000 0.01245  0.01026  0.08349  Biso   1.000  C
  C2       1.0000 0.27776  0.13899  0.08262  Biso   1.000  C
  C3       1.0000 0.21035  0.00483  0.08317  Biso   1.000  C
  C4       1.0000 0.47555  0.13898  0.08109  Biso   1.000  C
  C5       1.0000 0.40878  0.00482  0.08295  Biso   1.000  C
  C6       1.0000 0.67810  0.14433  0.08163  Biso   1.000  C
  C7       1.0000 0.61203  0.01018  0.08280  Biso   1.000  C
  C8       1.0000 0.88320  0.15216  0.08477  Biso   1.000  C
  C9       1.0000 0.81545  0.01661  0.08369  Biso   1.000  C
  C10      1.0000 0.08051  0.14440  0.08468  Biso   1.000  C
  C11      1.0000 0.21316  0.20768  0.08374  Biso   1.000  C
  C12      1.0000 0.47749  0.34068  0.07973  Biso   1.000  C
  C13      1.0000 0.41049  0.20666  0.08101  Biso   1.000  C
  C14      1.0000 0.67416  0.34137  0.07754  Biso   1.000  C
  C15      1.0000 0.60883  0.20768  0.07984  Biso   1.000  C
  C16      1.0000 0.81262  0.21704  0.08280  Biso   1.000  C
  C17      1.0000 0.01863  0.21707  0.08629  Biso   1.000  C
  C18      1.0000 0.28156  0.34142  0.08368  Biso   1.000  C
  C19      1.0000 0.41383  0.40895  0.08132  Biso   1.000  C
  C20      1.0000 0.67612  0.54226  0.07778  Biso   1.000  C
  C21      1.0000 0.60941  0.40894  0.07765  Biso   1.000  C
  C22      1.0000 0.87376  0.54386  0.07824  Biso   1.000  C
  C23      1.0000 0.80543  0.40734  0.07812  Biso   1.000  C
  C24      1.0000 0.28446  0.54375  0.08660  Biso   1.000  C
  C25      1.0000 0.21628  0.40736  0.08645  Biso   1.000  C
  C26      1.0000 0.48041  0.54224  0.08128  Biso   1.000  C
  C27      1.0000 0.61238  0.61047  0.07978  Biso   1.000  C
  C28      1.0000 0.87682  0.74358  0.08013  Biso   1.000  C
  C29      1.0000 0.80828  0.60978  0.07788  Biso   1.000  C
  C30      1.0000 0.07120  0.73417  0.08286  Biso   1.000  C
  C31      1.0000 0.27717  0.73420  0.08653  Biso   1.000  C
  C32      1.0000 0.48106  0.74355  0.08372  Biso   1.000  C
  C33      1.0000 0.41579  0.60971  0.08363  Biso   1.000  C
  C34      1.0000 0.67945  0.74458  0.08107  Biso   1.000  C
  C35      1.0000 0.81211  0.81220  0.08125  Biso   1.000  C
  C36      1.0000 0.07744  0.94104  0.08296  Biso   1.000  C
  C37      1.0000 0.00931  0.80691  0.08182  Biso   1.000  C
  C38      1.0000 0.27448  0.93464  0.08376  Biso   1.000  C
  C39      1.0000 0.20668  0.79909  0.08494  Biso   1.000  C
  C40      1.0000 0.47783  0.94096  0.08335  Biso   1.000  C
  C41      1.0000 0.41181  0.80685  0.08465  Biso   1.000  C
  C42      1.0000 0.68113  0.94643  0.08310  Biso   1.000  C
  C43      1.0000 0.61438  0.81218  0.08260  Biso   1.000  C
  C44      1.0000 0.87960  0.94644  0.08303  Biso   1.000  C
  N1       1.0000 0.86997  0.34495  0.08162  Biso   1.000  N
  N2       1.0000 0.08918  0.34507  0.08855  Biso   1.000  N
  N3       1.0000 0.00065  0.60631  0.08151  Biso   1.000  N
  N4       1.0000 0.21979  0.60616  0.08932  Biso   1.000  N
  Cu1      1.0000 0.04396  0.47540  0.09788  Biso   1.000  Cu
  O1       1.0000 0.00717  0.46473  0.22812  Biso   1.000  O
  H1       1.0000 0.06986  0.52957  0.26050  Biso   1.000  H
  C45      1.0000 0.79381  0.43459  0.27595  Biso   1.000  C
  H2       1.0000 0.79718  0.43886  0.33628  Biso   1.000  H
  H3       1.0000 0.72602  0.34212  0.25433  Biso   1.000  H
  H4       1.0000 0.78727  0.51149  0.25020  Biso   1.000  H
  H5       1.0000 0.91297  0.45113  0.25047  Biso   1.000  H
