data_image0
_cell_length_a       12.26
_cell_length_b       12.2622
_cell_length_c       18
_cell_angle_alpha    90
_cell_angle_beta     90
_cell_angle_gamma    119.994

_symmetry_space_group_name_H-M    "P 1"
_symmetry_int_tables_number       1

loop_
  _symmetry_equiv_pos_as_xyz
  'x, y, z'

loop_
  _atom_site_label
  _atom_site_occupancy
  _atom_site_fract_x
  _atom_site_fract_y
  _atom_site_fract_z
  _atom_site_thermal_displace_type
  _atom_site_B_iso_or_equiv
  _atom_site_type_symbol
  C1       1.0000 0.01299  0.01046  0.08337  Biso   1.000  C
  C2       1.0000 0.27833  0.13925  0.08320  Biso   1.000  C
  C3       1.0000 0.21086  0.00504  0.08359  Biso   1.000  C
  C4       1.0000 0.47607  0.13927  0.08217  Biso   1.000  C
  C5       1.0000 0.40928  0.00508  0.08352  Biso   1.000  C
  C6       1.0000 0.67859  0.14458  0.08212  Biso   1.000  C
  C7       1.0000 0.61255  0.01047  0.08320  Biso   1.000  C
  C8       1.0000 0.88373  0.15238  0.08375  Biso   1.000  C
  C9       1.0000 0.81596  0.01683  0.08343  Biso   1.000  C
  C10      1.0000 0.08108  0.14457  0.08393  Biso   1.000  C
  C11      1.0000 0.21361  0.20786  0.08351  Biso   1.000  C
  C12      1.0000 0.47812  0.34099  0.08097  Biso   1.000  C
  C13      1.0000 0.41100  0.20687  0.08210  Biso   1.000  C
  C14      1.0000 0.67462  0.34170  0.07877  Biso   1.000  C
  C15      1.0000 0.60938  0.20792  0.08091  Biso   1.000  C
  C16      1.0000 0.81311  0.21717  0.08250  Biso   1.000  C
  C17      1.0000 0.01917  0.21721  0.08432  Biso   1.000  C
  C18      1.0000 0.28221  0.34168  0.08315  Biso   1.000  C
  C19      1.0000 0.41434  0.40910  0.08191  Biso   1.000  C
  C20      1.0000 0.67666  0.54253  0.07875  Biso   1.000  C
  C21      1.0000 0.60994  0.40915  0.07903  Biso   1.000  C
  C22      1.0000 0.87415  0.54406  0.07869  Biso   1.000  C
  C23      1.0000 0.80587  0.40764  0.07872  Biso   1.000  C
  C24      1.0000 0.28503  0.54394  0.08450  Biso   1.000  C
  C25      1.0000 0.21683  0.40757  0.08408  Biso   1.000  C
  C26      1.0000 0.48104  0.54251  0.08174  Biso   1.000  C
  C27      1.0000 0.61299  0.61071  0.08056  Biso   1.000  C
  C28      1.0000 0.87721  0.74366  0.08046  Biso   1.000  C
  C29      1.0000 0.80885  0.61003  0.07836  Biso   1.000  C
  C30      1.0000 0.07171  0.73432  0.08274  Biso   1.000  C
  C31      1.0000 0.27772  0.73439  0.08527  Biso   1.000  C
  C32      1.0000 0.48158  0.74373  0.08359  Biso   1.000  C
  C33      1.0000 0.41630  0.60995  0.08314  Biso   1.000  C
  C34      1.0000 0.67990  0.74471  0.08157  Biso   1.000  C
  C35      1.0000 0.81265  0.81249  0.08159  Biso   1.000  C
  C36      1.0000 0.07789  0.94117  0.08317  Biso   1.000  C
  C37      1.0000 0.00987  0.80709  0.08203  Biso   1.000  C
  C38      1.0000 0.27500  0.93490  0.08399  Biso   1.000  C
  C39      1.0000 0.20718  0.79929  0.08446  Biso   1.000  C
  C40      1.0000 0.47837  0.94119  0.08368  Biso   1.000  C
  C41      1.0000 0.41233  0.80713  0.08431  Biso   1.000  C
  C42      1.0000 0.68164  0.94661  0.08331  Biso   1.000  C
  C43      1.0000 0.61495  0.81248  0.08293  Biso   1.000  C
  C44      1.0000 0.88001  0.94658  0.08296  Biso   1.000  C
  N1       1.0000 0.87040  0.34520  0.08147  Biso   1.000  N
  N2       1.0000 0.08981  0.34513  0.08477  Biso   1.000  N
  N3       1.0000 0.00114  0.60624  0.08155  Biso   1.000  N
  N4       1.0000 0.22022  0.60629  0.08655  Biso   1.000  N
  Cu1      1.0000 0.04463  0.47485  0.09506  Biso   1.000  Cu
  O1       1.0000 0.03141  0.45655  0.22579  Biso   1.000  O
  H1       1.0000 0.09199  0.52714  0.25607  Biso   1.000  H
  C45      1.0000 0.81516  0.40416  0.27924  Biso   1.000  C
  H2       1.0000 0.82027  0.40267  0.33987  Biso   1.000  H
  H3       1.0000 0.93092  0.42788  0.25270  Biso   1.000  H
  H4       1.0000 0.74505  0.31396  0.25595  Biso   1.000  H
  O2       1.0000 0.79244  0.49822  0.25155  Biso   1.000  O
  H5       1.0000 0.85125  0.57764  0.27509  Biso   1.000  H
