data_image0
_cell_length_a       7.36011
_cell_length_b       7.36001
_cell_length_c       18.5212
_cell_angle_alpha    90
_cell_angle_beta     90
_cell_angle_gamma    120.001

_symmetry_space_group_name_H-M    "P 1"
_symmetry_int_tables_number       1

loop_
  _symmetry_equiv_pos_as_xyz
  'x, y, z'

loop_
  _atom_site_label
  _atom_site_occupancy
  _atom_site_fract_x
  _atom_site_fract_y
  _atom_site_fract_z
  _atom_site_thermal_displace_type
  _atom_site_B_iso_or_equiv
  _atom_site_type_symbol
  C1       1.0000 0.00002  0.99194  0.99908  Biso   1.000  C
  C2       1.0000 0.11095  0.88049  0.99929  Biso   1.000  C
  C3       1.0000 0.99932  0.32491  0.00442  Biso   1.000  C
  C4       1.0000 0.10880  0.21202  0.00497  Biso   1.000  C
  C5       1.0000 0.00060  0.65868  0.99958  Biso   1.000  C
  C6       1.0000 0.11035  0.54755  0.00623  Biso   1.000  C
  C7       1.0000 0.33246  0.99093  0.00026  Biso   1.000  C
  C8       1.0000 0.44384  0.88129  0.00597  Biso   1.000  C
  C9       1.0000 0.32636  0.31247  0.01469  Biso   1.000  C
  C10      1.0000 0.44357  0.21205  0.00342  Biso   1.000  C
  C11      1.0000 0.32832  0.66374  0.01739  Biso   1.000  C
  C12      1.0000 0.66669  0.99243  0.00381  Biso   1.000  C
  C13      1.0000 0.77970  0.88327  0.00322  Biso   1.000  C
  C14      1.0000 0.66642  0.32497  0.00197  Biso   1.000  C
  C15      1.0000 0.77730  0.21425  0.00084  Biso   1.000  C
  C16      1.0000 0.67951  0.66559  0.01217  Biso   1.000  C
  C17      1.0000 0.77923  0.54739  0.00180  Biso   1.000  C
  Fe1      1.0000 0.45390  0.54542  0.06858  Biso   1.000  Fe
  O1       1.0000 0.50566  0.54671  0.16029  Biso   1.000  O
  C18      1.0000 0.77930  0.44189  0.19528  Biso   1.000  C
  H1       1.0000 0.76692  0.43772  0.25372  Biso   1.000  H
  H2       1.0000 0.72254  0.28958  0.17003  Biso   1.000  H
  H3       1.0000 0.62902  0.50053  0.17572  Biso   1.000  H
  H4       1.0000 0.92736  0.56630  0.17413  Biso   1.000  H
