data_image0
_cell_length_a       7.36011
_cell_length_b       7.36001
_cell_length_c       18.5212
_cell_angle_alpha    90
_cell_angle_beta     90
_cell_angle_gamma    120.001

_symmetry_space_group_name_H-M    "P 1"
_symmetry_int_tables_number       1

loop_
  _symmetry_equiv_pos_as_xyz
  'x, y, z'

loop_
  _atom_site_label
  _atom_site_occupancy
  _atom_site_fract_x
  _atom_site_fract_y
  _atom_site_fract_z
  _atom_site_thermal_displace_type
  _atom_site_B_iso_or_equiv
  _atom_site_type_symbol
  C1       1.0000 0.99365  0.99258  0.99798  Biso   1.000  C
  C2       1.0000 0.10460  0.88156  0.99749  Biso   1.000  C
  C3       1.0000 0.99303  0.32577  0.00384  Biso   1.000  C
  C4       1.0000 0.10355  0.21323  0.00398  Biso   1.000  C
  C5       1.0000 0.99373  0.65963  0.99805  Biso   1.000  C
  C6       1.0000 0.10355  0.54885  0.00419  Biso   1.000  C
  C7       1.0000 0.32645  0.99243  0.99809  Biso   1.000  C
  C8       1.0000 0.43730  0.88266  0.00422  Biso   1.000  C
  C9       1.0000 0.32002  0.31232  0.01573  Biso   1.000  C
  C10      1.0000 0.43736  0.21311  0.00396  Biso   1.000  C
  C11      1.0000 0.31999  0.66615  0.01607  Biso   1.000  C
  C12      1.0000 0.66039  0.99314  0.00386  Biso   1.000  C
  C13      1.0000 0.77301  0.88271  0.00391  Biso   1.000  C
  C14      1.0000 0.66043  0.32571  0.00375  Biso   1.000  C
  C15      1.0000 0.77127  0.21486  0.00152  Biso   1.000  C
  C16      1.0000 0.67400  0.66621  0.01562  Biso   1.000  C
  C17      1.0000 0.77307  0.54877  0.00386  Biso   1.000  C
  Mn1      1.0000 0.43841  0.54817  0.07506  Biso   1.000  Mn
  O1       1.0000 0.43792  0.54842  0.16198  Biso   1.000  O
