data_image0
_cell_length_a       7.36011
_cell_length_b       7.36001
_cell_length_c       18.5212
_cell_angle_alpha    90
_cell_angle_beta     90
_cell_angle_gamma    120.001

_symmetry_space_group_name_H-M    "P 1"
_symmetry_int_tables_number       1

loop_
  _symmetry_equiv_pos_as_xyz
  'x, y, z'

loop_
  _atom_site_label
  _atom_site_occupancy
  _atom_site_fract_x
  _atom_site_fract_y
  _atom_site_fract_z
  _atom_site_thermal_displace_type
  _atom_site_B_iso_or_equiv
  _atom_site_type_symbol
  C1       1.0000 0.99644  0.99438  0.99779  Biso   1.000  C
  C2       1.0000 0.10736  0.88312  0.99754  Biso   1.000  C
  C3       1.0000 0.99588  0.32751  0.00403  Biso   1.000  C
  C4       1.0000 0.10568  0.21466  0.00391  Biso   1.000  C
  C5       1.0000 0.99727  0.66132  0.99803  Biso   1.000  C
  C6       1.0000 0.10725  0.55092  0.00533  Biso   1.000  C
  C7       1.0000 0.32905  0.99350  0.99830  Biso   1.000  C
  C8       1.0000 0.43984  0.88384  0.00469  Biso   1.000  C
  C9       1.0000 0.32299  0.31377  0.01344  Biso   1.000  C
  C10      1.0000 0.44028  0.21449  0.00204  Biso   1.000  C
  C11      1.0000 0.32450  0.66711  0.01637  Biso   1.000  C
  C12      1.0000 0.66311  0.99495  0.00310  Biso   1.000  C
  C13      1.0000 0.77582  0.88523  0.00219  Biso   1.000  C
  C14      1.0000 0.66304  0.32731  0.00136  Biso   1.000  C
  C15      1.0000 0.77427  0.21668  0.00053  Biso   1.000  C
  C16      1.0000 0.67720  0.66802  0.01112  Biso   1.000  C
  C17      1.0000 0.77608  0.54994  0.00095  Biso   1.000  C
  Mn1      1.0000 0.45056  0.54654  0.07130  Biso   1.000  Mn
  O1       1.0000 0.51330  0.53228  0.16161  Biso   1.000  O
  C18      1.0000 0.79067  0.43685  0.19819  Biso   1.000  C
  H1       1.0000 0.78028  0.43056  0.25672  Biso   1.000  H
  H2       1.0000 0.73540  0.28542  0.17232  Biso   1.000  H
  H3       1.0000 0.64211  0.49104  0.17903  Biso   1.000  H
  H4       1.0000 0.93803  0.56265  0.17699  Biso   1.000  H
