data_image0
_cell_length_a       7.50446
_cell_length_b       7.50244
_cell_length_c       18.5212
_cell_angle_alpha    90
_cell_angle_beta     90
_cell_angle_gamma    119.971

_symmetry_space_group_name_H-M    "P 1"
_symmetry_int_tables_number       1

loop_
  _symmetry_equiv_pos_as_xyz
  'x, y, z'

loop_
  _atom_site_label
  _atom_site_occupancy
  _atom_site_fract_x
  _atom_site_fract_y
  _atom_site_fract_z
  _atom_site_thermal_displace_type
  _atom_site_B_iso_or_equiv
  _atom_site_type_symbol
  N1       1.0000 0.10810  0.22959  0.98969  Biso   1.000  N
  N2       1.0000 0.10802  0.56249  0.98896  Biso   1.000  N
  N3       1.0000 0.10930  0.89700  0.99756  Biso   1.000  N
  B1       1.0000 0.32904  0.33844  0.99779  Biso   1.000  B
  N4       1.0000 0.44141  0.22906  0.99826  Biso   1.000  N
  B2       1.0000 0.32946  0.67574  0.99642  Biso   1.000  B
  N5       1.0000 0.42492  0.55503  0.00648  Biso   1.000  N
  B3       1.0000 0.33067  0.00771  0.99647  Biso   1.000  B
  N6       1.0000 0.44139  0.89709  0.99701  Biso   1.000  N
  B4       1.0000 0.66317  0.33842  0.99820  Biso   1.000  B
  N7       1.0000 0.77529  0.22965  0.98969  Biso   1.000  N
  Ni1      1.0000 0.66149  0.67210  0.05895  Biso   1.000  Ni
  N8       1.0000 0.78401  0.55449  0.00812  Biso   1.000  N
  B5       1.0000 0.66353  0.00798  0.99596  Biso   1.000  B
  N9       1.0000 0.78114  0.90877  0.00542  Biso   1.000  N
  B6       1.0000 0.99721  0.34066  0.98924  Biso   1.000  B
  B7       1.0000 0.99976  0.67556  0.99719  Biso   1.000  B
  B8       1.0000 0.99806  0.00794  0.99629  Biso   1.000  B
  O1       1.0000 0.61031  0.57634  0.14606  Biso   1.000  O
  C1       1.0000 0.48048  0.21437  0.19310  Biso   1.000  C
  H1       1.0000 0.33072  0.12580  0.16763  Biso   1.000  H
  H2       1.0000 0.59680  0.17903  0.17453  Biso   1.000  H
  H3       1.0000 0.47704  0.23439  0.25105  Biso   1.000  H
  H4       1.0000 0.54988  0.41237  0.16773  Biso   1.000  H
