data_image0
_cell_length_a       12.26
_cell_length_b       12.2622
_cell_length_c       18
_cell_angle_alpha    90
_cell_angle_beta     90
_cell_angle_gamma    119.994

_symmetry_space_group_name_H-M    "P 1"
_symmetry_int_tables_number       1

loop_
  _symmetry_equiv_pos_as_xyz
  'x, y, z'

loop_
  _atom_site_label
  _atom_site_occupancy
  _atom_site_fract_x
  _atom_site_fract_y
  _atom_site_fract_z
  _atom_site_thermal_displace_type
  _atom_site_B_iso_or_equiv
  _atom_site_type_symbol
  C1       1.0000 0.01142  0.01032  0.08745  Biso   1.000  C
  C2       1.0000 0.27657  0.13884  0.08724  Biso   1.000  C
  C3       1.0000 0.20920  0.00449  0.08723  Biso   1.000  C
  C4       1.0000 0.47466  0.13885  0.08745  Biso   1.000  C
  C5       1.0000 0.40765  0.00450  0.08727  Biso   1.000  C
  C6       1.0000 0.67800  0.14494  0.08783  Biso   1.000  C
  C7       1.0000 0.61128  0.01034  0.08769  Biso   1.000  C
  C8       1.0000 0.88230  0.15221  0.08803  Biso   1.000  C
  C9       1.0000 0.81435  0.01632  0.08809  Biso   1.000  C
  C10      1.0000 0.07931  0.14492  0.08724  Biso   1.000  C
  C11      1.0000 0.21192  0.20766  0.08698  Biso   1.000  C
  C12      1.0000 0.47643  0.34044  0.08725  Biso   1.000  C
  C13      1.0000 0.40941  0.20645  0.08737  Biso   1.000  C
  C14      1.0000 0.67362  0.34124  0.08733  Biso   1.000  C
  C15      1.0000 0.60814  0.20769  0.08760  Biso   1.000  C
  C16      1.0000 0.81317  0.21802  0.08791  Biso   1.000  C
  C17      1.0000 0.01723  0.21801  0.08719  Biso   1.000  C
  C18      1.0000 0.28003  0.34121  0.08638  Biso   1.000  C
  C19      1.0000 0.41237  0.40862  0.08676  Biso   1.000  C
  C20      1.0000 0.67535  0.54205  0.08728  Biso   1.000  C
  C21      1.0000 0.60865  0.40864  0.08730  Biso   1.000  C
  C22      1.0000 0.87258  0.54261  0.08698  Biso   1.000  C
  C23      1.0000 0.80529  0.40798  0.08704  Biso   1.000  C
  C24      1.0000 0.28246  0.54253  0.08578  Biso   1.000  C
  C25      1.0000 0.21508  0.40792  0.08559  Biso   1.000  C
  C26      1.0000 0.47911  0.54204  0.08673  Biso   1.000  C
  C27      1.0000 0.61133  0.61025  0.08728  Biso   1.000  C
  C28      1.0000 0.87578  0.74299  0.08742  Biso   1.000  C
  C29      1.0000 0.80771  0.60941  0.08723  Biso   1.000  C
  C30      1.0000 0.07046  0.73267  0.08728  Biso   1.000  C
  C31      1.0000 0.27457  0.73273  0.08698  Biso   1.000  C
  C32      1.0000 0.47958  0.74299  0.08702  Biso   1.000  C
  C33      1.0000 0.41410  0.60939  0.08636  Biso   1.000  C
  C34      1.0000 0.67831  0.74425  0.08762  Biso   1.000  C
  C35      1.0000 0.81117  0.81183  0.08768  Biso   1.000  C
  C36      1.0000 0.07631  0.94036  0.08724  Biso   1.000  C
  C37      1.0000 0.00840  0.80575  0.08728  Biso   1.000  C
  C38      1.0000 0.27339  0.93440  0.08726  Biso   1.000  C
  C39      1.0000 0.20540  0.79845  0.08727  Biso   1.000  C
  C40      1.0000 0.47643  0.94038  0.08724  Biso   1.000  C
  C41      1.0000 0.40971  0.80576  0.08698  Biso   1.000  C
  C42      1.0000 0.68003  0.94619  0.08791  Biso   1.000  C
  C43      1.0000 0.61302  0.81183  0.08761  Biso   1.000  C
  C44      1.0000 0.87852  0.94618  0.08778  Biso   1.000  C
  N1       1.0000 0.87238  0.34722  0.08684  Biso   1.000  N
  N2       1.0000 0.08724  0.34718  0.08542  Biso   1.000  N
  N3       1.0000 0.00049  0.60332  0.08677  Biso   1.000  N
  N4       1.0000 0.21517  0.60324  0.08631  Biso   1.000  N
  Ni1      1.0000 0.04392  0.47512  0.09607  Biso   1.000  Ni
  O1       1.0000 0.03970  0.46515  0.20915  Biso   1.000  O
  H1       1.0000 0.10326  0.54618  0.22926  Biso   1.000  H
