data_image0
_cell_length_a       12.26
_cell_length_b       12.2622
_cell_length_c       18
_cell_angle_alpha    90
_cell_angle_beta     90
_cell_angle_gamma    119.994

_symmetry_space_group_name_H-M    "P 1"
_symmetry_int_tables_number       1

loop_
  _symmetry_equiv_pos_as_xyz
  'x, y, z'

loop_
  _atom_site_label
  _atom_site_occupancy
  _atom_site_fract_x
  _atom_site_fract_y
  _atom_site_fract_z
  _atom_site_thermal_displace_type
  _atom_site_B_iso_or_equiv
  _atom_site_type_symbol
  C1       1.0000 0.01271  0.01053  0.08381  Biso   1.000  C
  C2       1.0000 0.27792  0.13896  0.08397  Biso   1.000  C
  C3       1.0000 0.21048  0.00455  0.08373  Biso   1.000  C
  C4       1.0000 0.47595  0.13899  0.08269  Biso   1.000  C
  C5       1.0000 0.40897  0.00457  0.08343  Biso   1.000  C
  C6       1.0000 0.67939  0.14526  0.08188  Biso   1.000  C
  C7       1.0000 0.61265  0.01051  0.08321  Biso   1.000  C
  C8       1.0000 0.88378  0.15266  0.08319  Biso   1.000  C
  C9       1.0000 0.81577  0.01667  0.08363  Biso   1.000  C
  C10      1.0000 0.08073  0.14530  0.08425  Biso   1.000  C
  C11      1.0000 0.21322  0.20779  0.08441  Biso   1.000  C
  C12      1.0000 0.47782  0.34062  0.08294  Biso   1.000  C
  C13      1.0000 0.41074  0.20655  0.08324  Biso   1.000  C
  C14      1.0000 0.67491  0.34147  0.07982  Biso   1.000  C
  C15      1.0000 0.60948  0.20780  0.08129  Biso   1.000  C
  C16      1.0000 0.81464  0.21842  0.08150  Biso   1.000  C
  C17      1.0000 0.01862  0.21851  0.08402  Biso   1.000  C
  C18      1.0000 0.28145  0.34144  0.08466  Biso   1.000  C
  C19      1.0000 0.41386  0.40882  0.08412  Biso   1.000  C
  C20      1.0000 0.67664  0.54219  0.08137  Biso   1.000  C
  C21      1.0000 0.60994  0.40882  0.08115  Biso   1.000  C
  C22      1.0000 0.87375  0.54291  0.07891  Biso   1.000  C
  C23      1.0000 0.80635  0.40810  0.07861  Biso   1.000  C
  C24      1.0000 0.28400  0.54282  0.08488  Biso   1.000  C
  C25      1.0000 0.21660  0.40812  0.08476  Biso   1.000  C
  C26      1.0000 0.48055  0.54219  0.08416  Biso   1.000  C
  C27      1.0000 0.61270  0.61041  0.08316  Biso   1.000  C
  C28      1.0000 0.87719  0.74324  0.08189  Biso   1.000  C
  C29      1.0000 0.80896  0.60954  0.08036  Biso   1.000  C
  C30      1.0000 0.07172  0.73263  0.08182  Biso   1.000  C
  C31      1.0000 0.27569  0.73261  0.08419  Biso   1.000  C
  C32      1.0000 0.48096  0.74324  0.08448  Biso   1.000  C
  C33      1.0000 0.41549  0.60954  0.08473  Biso   1.000  C
  C34      1.0000 0.67972  0.74449  0.08354  Biso   1.000  C
  C35      1.0000 0.81248  0.81207  0.08311  Biso   1.000  C
  C36      1.0000 0.07766  0.94054  0.08346  Biso   1.000  C
  C37      1.0000 0.00965  0.80581  0.08231  Biso   1.000  C
  C38      1.0000 0.27465  0.93443  0.08363  Biso   1.000  C
  C39      1.0000 0.20665  0.79839  0.08339  Biso   1.000  C
  C40      1.0000 0.47772  0.94052  0.08361  Biso   1.000  C
  C41      1.0000 0.41098  0.80577  0.08424  Biso   1.000  C
  C42      1.0000 0.68145  0.94651  0.08370  Biso   1.000  C
  C43      1.0000 0.61448  0.81209  0.08410  Biso   1.000  C
  C44      1.0000 0.87993  0.94649  0.08368  Biso   1.000  C
  N1       1.0000 0.87389  0.34777  0.07941  Biso   1.000  N
  N2       1.0000 0.08865  0.34803  0.08420  Biso   1.000  N
  N3       1.0000 0.00166  0.60326  0.07977  Biso   1.000  N
  N4       1.0000 0.21611  0.60297  0.08471  Biso   1.000  N
  Ni1      1.0000 0.04492  0.47543  0.08509  Biso   1.000  Ni
  O1       1.0000 0.00226  0.46256  0.22678  Biso   1.000  O
  H1       1.0000 0.06596  0.53532  0.25427  Biso   1.000  H
  C45      1.0000 0.79330  0.43505  0.27535  Biso   1.000  C
  H2       1.0000 0.79415  0.43936  0.33565  Biso   1.000  H
  H3       1.0000 0.72535  0.34302  0.25321  Biso   1.000  H
  H4       1.0000 0.78940  0.51265  0.24863  Biso   1.000  H
  H5       1.0000 0.90690  0.44874  0.25143  Biso   1.000  H
