data_image0
_cell_length_a       7.50446
_cell_length_b       7.50244
_cell_length_c       18.5212
_cell_angle_alpha    90
_cell_angle_beta     90
_cell_angle_gamma    119.971

_symmetry_space_group_name_H-M    "P 1"
_symmetry_int_tables_number       1

loop_
  _symmetry_equiv_pos_as_xyz
  'x, y, z'

loop_
  _atom_site_label
  _atom_site_occupancy
  _atom_site_fract_x
  _atom_site_fract_y
  _atom_site_fract_z
  _atom_site_thermal_displace_type
  _atom_site_B_iso_or_equiv
  _atom_site_type_symbol
  N1       1.0000 0.11442  0.17113  0.99265  Biso   1.000  N
  N2       1.0000 0.11402  0.50460  0.99458  Biso   1.000  N
  N3       1.0000 0.11445  0.83744  0.00760  Biso   1.000  N
  B1       1.0000 0.33425  0.27778  0.00394  Biso   1.000  B
  N4       1.0000 0.44666  0.16871  0.00573  Biso   1.000  N
  B2       1.0000 0.33397  0.61505  0.00589  Biso   1.000  B
  N5       1.0000 0.42800  0.49228  0.01777  Biso   1.000  N
  B3       1.0000 0.33604  0.94762  0.00558  Biso   1.000  B
  N6       1.0000 0.44754  0.83732  0.00757  Biso   1.000  N
  B4       1.0000 0.66944  0.28108  0.00266  Biso   1.000  B
  N7       1.0000 0.78052  0.17143  0.99183  Biso   1.000  N
  Pt1      1.0000 0.66781  0.61920  0.08276  Biso   1.000  Pt
  N8       1.0000 0.78562  0.49658  0.01418  Biso   1.000  N
  B5       1.0000 0.66990  0.95309  0.00566  Biso   1.000  B
  N9       1.0000 0.79377  0.86291  0.02039  Biso   1.000  N
  B6       1.0000 0.00276  0.28233  0.99230  Biso   1.000  B
  B7       1.0000 0.00227  0.61440  0.00441  Biso   1.000  B
  B8       1.0000 0.00728  0.95215  0.00569  Biso   1.000  B
  O1       1.0000 0.64397  0.71057  0.17590  Biso   1.000  O
  C1       1.0000 0.58137  0.00788  0.20853  Biso   1.000  C
  H1       1.0000 0.59713  0.01034  0.26724  Biso   1.000  H
  H2       1.0000 0.62143  0.84887  0.18908  Biso   1.000  H
  H3       1.0000 0.42483  0.95032  0.18924  Biso   1.000  H
  O2       1.0000 0.71360  0.19101  0.17395  Biso   1.000  O
  H4       1.0000 0.84706  0.25533  0.19785  Biso   1.000  H
