data_image0
_cell_length_a       7.36011
_cell_length_b       7.36001
_cell_length_c       18.5212
_cell_angle_alpha    90
_cell_angle_beta     90
_cell_angle_gamma    120.001

_symmetry_space_group_name_H-M    "P 1"
_symmetry_int_tables_number       1

loop_
  _symmetry_equiv_pos_as_xyz
  'x, y, z'

loop_
  _atom_site_label
  _atom_site_occupancy
  _atom_site_fract_x
  _atom_site_fract_y
  _atom_site_fract_z
  _atom_site_thermal_displace_type
  _atom_site_B_iso_or_equiv
  _atom_site_type_symbol
  C1       1.0000 0.99388  0.99243  0.99499  Biso   1.000  C
  C2       1.0000 0.10491  0.88149  0.99469  Biso   1.000  C
  C3       1.0000 0.99328  0.32598  0.00120  Biso   1.000  C
  C4       1.0000 0.10250  0.21244  0.00146  Biso   1.000  C
  C5       1.0000 0.99459  0.65987  0.99556  Biso   1.000  C
  C6       1.0000 0.10434  0.54889  0.00287  Biso   1.000  C
  C7       1.0000 0.32657  0.99198  0.99527  Biso   1.000  C
  C8       1.0000 0.43777  0.88251  0.00224  Biso   1.000  C
  C9       1.0000 0.31833  0.30965  0.01371  Biso   1.000  C
  C10      1.0000 0.43764  0.21285  0.99998  Biso   1.000  C
  C11      1.0000 0.32073  0.66658  0.01605  Biso   1.000  C
  C12      1.0000 0.66057  0.99345  0.00074  Biso   1.000  C
  C13      1.0000 0.77367  0.88383  0.00115  Biso   1.000  C
  C14      1.0000 0.66034  0.32601  0.99933  Biso   1.000  C
  C15      1.0000 0.77148  0.21516  0.99729  Biso   1.000  C
  C16      1.0000 0.67756  0.66839  0.01388  Biso   1.000  C
  C17      1.0000 0.77367  0.54869  0.00019  Biso   1.000  C
  Rh1      1.0000 0.44364  0.54398  0.07602  Biso   1.000  Rh
  O1       1.0000 0.48568  0.54009  0.17797  Biso   1.000  O
  C18      1.0000 0.76192  0.43681  0.20282  Biso   1.000  C
  H1       1.0000 0.76097  0.42105  0.26117  Biso   1.000  H
  H2       1.0000 0.70307  0.28900  0.17400  Biso   1.000  H
  H3       1.0000 0.61974  0.49353  0.19144  Biso   1.000  H
  H4       1.0000 0.90803  0.56399  0.18130  Biso   1.000  H
