data_image0
_cell_length_a       7.36011
_cell_length_b       7.36001
_cell_length_c       21.1671
_cell_angle_alpha    90
_cell_angle_beta     90
_cell_angle_gamma    120.001

_symmetry_space_group_name_H-M    "P 1"
_symmetry_int_tables_number       1

loop_
  _symmetry_equiv_pos_as_xyz
  'x, y, z'

loop_
  _atom_site_label
  _atom_site_occupancy
  _atom_site_fract_x
  _atom_site_fract_y
  _atom_site_fract_z
  _atom_site_thermal_displace_type
  _atom_site_B_iso_or_equiv
  _atom_site_type_symbol
  C1       1.0000 0.99564  0.99398  0.99740  Biso   1.000  C
  C2       1.0000 0.10616  0.88251  0.99660  Biso   1.000  C
  C3       1.0000 0.99424  0.32620  0.00200  Biso   1.000  C
  C4       1.0000 0.10505  0.21415  0.00419  Biso   1.000  C
  C5       1.0000 0.99509  0.66022  0.99655  Biso   1.000  C
  C6       1.0000 0.10363  0.54899  0.00235  Biso   1.000  C
  C7       1.0000 0.32807  0.99400  0.99757  Biso   1.000  C
  C8       1.0000 0.43866  0.88394  0.00203  Biso   1.000  C
  C9       1.0000 0.32136  0.31317  0.01774  Biso   1.000  C
  C10      1.0000 0.43883  0.21421  0.00428  Biso   1.000  C
  C11      1.0000 0.31970  0.66678  0.01428  Biso   1.000  C
  C12      1.0000 0.66138  0.99303  0.00077  Biso   1.000  C
  C13      1.0000 0.77497  0.88383  0.00167  Biso   1.000  C
  C14      1.0000 0.66168  0.32623  0.00203  Biso   1.000  C
  C15      1.0000 0.77236  0.21506  0.99849  Biso   1.000  C
  C16      1.0000 0.67675  0.66675  0.01376  Biso   1.000  C
  C17      1.0000 0.77526  0.54909  0.00221  Biso   1.000  C
  Ru1      1.0000 0.44436  0.55850  0.06936  Biso   1.000  Ru
  O1       1.0000 0.42917  0.54053  0.15786  Biso   1.000  O
  C18      1.0000 0.59327  0.91943  0.19701  Biso   1.000  C
  H1       1.0000 0.63789  0.92187  0.24635  Biso   1.000  H
  H2       1.0000 0.50978  0.71944  0.18021  Biso   1.000  H
  H3       1.0000 0.46355  0.94913  0.19019  Biso   1.000  H
  O2       1.0000 0.75672  0.04776  0.15690  Biso   1.000  O
  H4       1.0000 0.88732  0.05867  0.17168  Biso   1.000  H
