data_image0
_cell_length_a       7.36011
_cell_length_b       7.36001
_cell_length_c       18.5212
_cell_angle_alpha    90
_cell_angle_beta     90
_cell_angle_gamma    120.001

_symmetry_space_group_name_H-M    "P 1"
_symmetry_int_tables_number       1

loop_
  _symmetry_equiv_pos_as_xyz
  'x, y, z'

loop_
  _atom_site_label
  _atom_site_occupancy
  _atom_site_fract_x
  _atom_site_fract_y
  _atom_site_fract_z
  _atom_site_thermal_displace_type
  _atom_site_B_iso_or_equiv
  _atom_site_type_symbol
  C1       1.0000 0.99997  0.98748  0.00323  Biso   1.000  C
  C2       1.0000 0.11117  0.87641  0.00327  Biso   1.000  C
  C3       1.0000 0.99881  0.32044  0.00937  Biso   1.000  C
  C4       1.0000 0.10791  0.20668  0.00991  Biso   1.000  C
  C5       1.0000 0.00008  0.65445  0.00437  Biso   1.000  C
  C6       1.0000 0.10949  0.54326  0.01007  Biso   1.000  C
  C7       1.0000 0.33307  0.98738  0.00429  Biso   1.000  C
  C8       1.0000 0.44431  0.87809  0.01005  Biso   1.000  C
  C9       1.0000 0.32313  0.30473  0.02421  Biso   1.000  C
  C10      1.0000 0.44332  0.20749  0.01094  Biso   1.000  C
  C11      1.0000 0.32646  0.66113  0.02241  Biso   1.000  C
  C12      1.0000 0.66711  0.98875  0.00939  Biso   1.000  C
  C13      1.0000 0.78093  0.87973  0.00998  Biso   1.000  C
  C14      1.0000 0.66619  0.32136  0.00991  Biso   1.000  C
  C15      1.0000 0.77724  0.21042  0.00645  Biso   1.000  C
  C16      1.0000 0.68280  0.66450  0.02438  Biso   1.000  C
  C17      1.0000 0.78003  0.54424  0.01105  Biso   1.000  C
  Tc1      1.0000 0.44395  0.54325  0.08799  Biso   1.000  Tc
  O1       1.0000 0.40316  0.58499  0.18608  Biso   1.000  O
  C18      1.0000 0.52546  0.48849  0.30151  Biso   1.000  C
  H1       1.0000 0.45487  0.54129  0.23635  Biso   1.000  H
  H2       1.0000 0.62270  0.64335  0.32453  Biso   1.000  H
  H3       1.0000 0.60839  0.41032  0.28258  Biso   1.000  H
  H4       1.0000 0.37794  0.38936  0.32895  Biso   1.000  H
