data_image0
_cell_length_a       7.36011
_cell_length_b       7.36001
_cell_length_c       18.5212
_cell_angle_alpha    90
_cell_angle_beta     90
_cell_angle_gamma    120.001

_symmetry_space_group_name_H-M    "P 1"
_symmetry_int_tables_number       1

loop_
  _symmetry_equiv_pos_as_xyz
  'x, y, z'

loop_
  _atom_site_label
  _atom_site_occupancy
  _atom_site_fract_x
  _atom_site_fract_y
  _atom_site_fract_z
  _atom_site_thermal_displace_type
  _atom_site_B_iso_or_equiv
  _atom_site_type_symbol
  C1       1.0000 0.99362  0.99257  0.99489  Biso   1.000  C
  C2       1.0000 0.10457  0.88151  0.99404  Biso   1.000  C
  C3       1.0000 0.99283  0.32564  0.00250  Biso   1.000  C
  C4       1.0000 0.10295  0.21244  0.00266  Biso   1.000  C
  C5       1.0000 0.99362  0.65952  0.99494  Biso   1.000  C
  C6       1.0000 0.10295  0.54893  0.00262  Biso   1.000  C
  C7       1.0000 0.32655  0.99251  0.99520  Biso   1.000  C
  C8       1.0000 0.43693  0.88288  0.00257  Biso   1.000  C
  C9       1.0000 0.31860  0.30983  0.01671  Biso   1.000  C
  C10      1.0000 0.43692  0.21246  0.00267  Biso   1.000  C
  C11      1.0000 0.31867  0.66716  0.01653  Biso   1.000  C
  C12      1.0000 0.66023  0.99293  0.00224  Biso   1.000  C
  C13      1.0000 0.77365  0.88302  0.00236  Biso   1.000  C
  C14      1.0000 0.66024  0.32573  0.00227  Biso   1.000  C
  C15      1.0000 0.77103  0.21472  0.99950  Biso   1.000  C
  C16      1.0000 0.67640  0.66742  0.01644  Biso   1.000  C
  C17      1.0000 0.77366  0.54904  0.00240  Biso   1.000  C
  Tc1      1.0000 0.43848  0.54859  0.08439  Biso   1.000  Tc
  O1       1.0000 0.43985  0.54937  0.17823  Biso   1.000  O
